152

U	-1.1516003608703613	-1.605406641960144	-5.697376251220703
O	-2.8426077365875244	-3.1730878353118896	-4.454025745391846
O	1.1967965364456177	-2.623171806335449	-5.306797981262207
O	-0.07835898548364639	0.2654968500137329	-6.067481994628906
O	-1.0882951021194458	-2.5130677223205566	-7.197201251983643
O	0.3441811203956604	-3.719633102416992	-4.795924186706543
O	-3.357309341430664	-1.8089429140090942	-4.9183220863342285
O	-0.8016135692596436	-1.422305703163147	-3.5361311435699463
O	-1.5692894458770752	0.32211965322494507	-5.879720211029053
U	-5.073866367340088	-2.0340576171875	-2.746255874633789
U	1.9300559759140015	-4.2982306480407715	-3.9639782905578613
U	-1.256068468093872	2.367144823074341	-5.223302364349365
Na	-2.6089553833007812	0.4641534090042114	-2.5561938285827637
Na	-0.9176751375198364	-3.6675329208374023	-1.966340184211731
Na	1.4327105283737183	-0.28620296716690063	-3.204149007797241
O	-4.5848798751831055	-4.331943511962891	-1.1276671886444092
O	-3.568089008331299	-4.878772258758545	-2.083730936050415
O	-3.110992908477783	-1.7423206567764282	-1.9539209604263306
O	-5.554006576538086	-0.6318371891975403	-2.825411319732666
O	-5.613821029663086	-3.7247302532196045	-4.064143180847168
O	-5.900856971740723	-1.4235024452209473	-1.6295417547225952
O	2.9605472087860107	-5.1796698570251465	-5.014806747436523
O	4.45719575881958	-3.0152180194854736	-3.0182979106903076
O	1.5717154741287231	-2.841046094894409	-2.3788013458251953
O	1.3365799188613892	-5.8781657218933105	-2.5448293685913086
O	3.9031944274902344	-2.1956706047058105	-4.173810005187988
O	2.6055283546447754	-5.637155532836914	-1.9878979921340942
O	1.711241364479065	2.4491140842437744	-5.275049209594727
O	-0.4295937716960907	3.071213722229004	-6.978640556335449
O	-2.7596280574798584	3.106196165084839	-4.74824857711792
O	-1.8380727767944336	4.1218414306640625	-4.492617607116699
O	1.1801928281784058	3.6335153579711914	-4.735398769378662
O	-0.5168337225914001	1.5842618942260742	-3.4382824897766113
O	-3.8926684856414795	0.5894275903701782	-0.5966216921806335
O	-2.1946027278900146	2.9562103748321533	-1.8365099430084229
O	-2.071695327758789	-3.782233476638794	0.22101067006587982
O	0.650294840335846	-4.361978054046631	-0.013029128313064575
O	2.2530570030212402	2.2670915126800537	-2.364363431930542
O	3.5164341926574707	-0.35365915298461914	-1.8052695989608765
U	-3.181635618209839	-5.553989410400391	0.25646576285362244
Na	-3.6702940464019775	-1.905259609222412	0.4903644919395447
U	-6.0159220695495605	-0.039773497730493546	-0.5277617573738098
U	5.2252302169799805	-1.4837087392807007	-2.9055514335632324
Na	3.3109264373779297	-2.561180591583252	-0.30162686109542847
U	1.0682854652404785	-6.397098541259766	-1.0022886991500854
U	3.1241016387939453	3.98183012008667	-3.355621337890625
U	-3.1001858711242676	3.71744441986084	-3.5638463497161865
Na	-0.08403283357620239	3.8004002571105957	-2.1403744220733643
Na	-2.963836193084717	2.716362237930298	0.3234485387802124
Na	-0.4400064945220947	-3.10581374168396	1.6247776746749878
Na	3.772085189819336	1.7306541204452515	-0.6228733658790588
O	-3.170631170272827	-5.105778217315674	2.517548084259033
O	-3.992466926574707	-6.9621357917785645	-0.011191504076123238
O	-1.2009053230285645	-6.477667808532715	-0.8215649127960205
O	-4.280046463012695	-4.525766372680664	1.86968994140625
O	-0.9395849704742432	-6.558719635009766	0.5530254244804382
O	-2.2532858848571777	-2.3399949073791504	2.4509952068328857
O	-3.39460825920105	0.34648242592811584	2.1630210876464844
O	-7.566383361816406	1.368404746055603	-1.4195936918258667
O	-5.050516605377197	3.0254170894622803	-1.5570108890533447
O	-5.989789009094238	1.6872045993804932	1.1548354625701904
O	-4.9517951011657715	2.3080132007598877	-2.779399871826172
O	-6.277467250823975	0.2576974928379059	1.050968050956726
O	6.591714382171631	-0.9124928712844849	-4.12039852142334
O	4.194932460784912	1.0717426538467407	-4.325890064239502
O	4.941717624664307	1.8227005004882812	-3.2064874172210693
O	6.051704406738281	-1.5972036123275757	-0.8870596885681152
O	6.207914352416992	-0.12556248903274536	-0.9921074509620667
O	3.8955018520355225	-0.48760324716567993	0.7869018316268921
O	2.2366456985473633	-2.939389944076538	1.6106399297714233
O	2.003451347351074	-5.9385986328125	1.8096219301223755
O	1.4995712041854858	-8.089875221252441	-0.2985677123069763
O	3.07568097114563	-5.657813549041748	0.8539265990257263
O	2.5229008197784424	5.302523136138916	-2.838463544845581
O	3.8026163578033447	4.742138862609863	-2.2266297340393066
O	3.8181800842285156	4.226263046264648	-5.2236762046813965
O	-2.2758145332336426	5.793123722076416	-1.7693712711334229
O	-4.726638317108154	5.090991497039795	-3.455951690673828
O	-3.2737460136413574	5.501155853271484	-0.8707462549209595
O	1.792467713356018	3.9594757556915283	-0.1813882738351822
O	-0.9173094630241394	4.276637554168701	0.2233123630285263
O	-1.6843963861465454	2.846606492996216	2.2748162746429443
O	0.49990230798721313	-1.7373294830322266	3.395806074142456
O	3.1679561138153076	2.1676504611968994	1.6374694108963013
U	-3.93938946723938	-2.448225259780884	4.0481719970703125
Na	-1.402537226676941	0.21418945491313934	3.5575411319732666
U	-5.428545951843262	0.7839759588241577	2.628913402557373
U	5.994925498962402	-0.0485316663980484	1.2986805438995361
Na	2.2299344539642334	-0.5077635049819946	2.491586923599243
U	3.9957275390625	-3.731790781021118	3.1174333095550537
U	3.4335412979125977	5.267993450164795	0.1556866466999054
U	-1.8259007930755615	5.958162784576416	1.0690521001815796
Na	0.7328101992607117	3.3872904777526855	2.018141508102417
U	-1.3802191019058228	4.624532699584961	3.517909049987793
U	1.0918290615081787	-1.825951099395752	5.65985107421875
U	4.782175540924072	2.5324084758758545	3.1623079776763916
O	-1.7871509790420532	-2.477525472640991	5.221341133117676
O	-4.288793563842773	-1.2711372375488281	4.374835014343262
O	-1.1201167106628418	-3.6828835010528564	4.689810752868652
O	-5.1571044921875	-1.6991232633590698	3.1993961334228516
O	-4.094386100769043	-4.178707122802734	5.162814617156982
O	0.8611369132995605	1.3011044263839722	3.478558301925659
O	-4.4468278884887695	2.912576675415039	3.299290657043457
O	-6.6201300621032715	0.7553374171257019	4.255142688751221
O	-3.8865463733673096	2.104219436645508	4.376765727996826
O	5.639479637145996	0.9689995646476746	2.7056946754455566
O	7.479574203491211	-1.2793607711791992	1.8969054222106934
O	5.194958686828613	-3.0504534244537354	1.5037771463394165
O	5.955625057220459	1.6516425609588623	1.4261114597320557
O	4.9795122146606445	-2.4864485263824463	2.822899580001831
O	2.7112293243408203	-3.248328685760498	4.687235355377197
O	1.6379578113555908	-4.159344673156738	4.3531904220581055
O	4.6568450927734375	-5.332760810852051	3.5073916912078857
O	3.4985828399658203	7.320070266723633	-0.5386329889297485
O	4.542116641998291	4.568652153015137	0.7325416803359985
O	3.6319642066955566	5.130967140197754	1.636290192604065
O	0.7941480875015259	6.564532279968262	0.6568280458450317
O	0.4903917908668518	6.56521463394165	-0.7213919758796692
O	-1.846211552619934	7.975250720977783	0.7931573987007141
O	-1.5719125270843506	5.646531581878662	2.682058572769165
O	-2.8613526821136475	5.459557056427002	1.9250890016555786
O	-2.8104641437530518	4.901820659637451	5.384275913238525
O	-1.1410281658172607	2.583207130432129	5.187620162963867
O	-0.20384064316749573	3.7153239250183105	4.6715087890625
O	0.3367346227169037	-0.11764897406101227	6.076138496398926
O	0.7694425582885742	-3.0915141105651855	6.9879584312438965
O	1.7879281044006348	-0.3331139385700226	5.811617374420166
O	2.8297338485717773	3.4670844078063965	4.420742034912109
O	5.777790546417236	4.09332275390625	3.7029199600219727
O	3.507931709289551	2.2177224159240723	4.731874942779541
U	1.5858055353164673	3.0406978130340576	4.925253868103027
O	1.3858057260513306	2.6439883708953857	7.041874408721924
Na	-6.825651168823242	3.588381767272949	-3.086923599243164
Na	7.120356559753418	-3.4570116996765137	3.2794058322906494
Na	0.9557747840881348	-4.3064374923706055	-7.050354957580566
Na	-1.3004357814788818	4.071468830108643	7.018420219421387
Na	-2.1281611919403076	-9.07127857208252	0.14964371919631958
Na	-2.2874386310577393	-3.7092349529266357	7.138298988342285
Na	2.263643741607666	3.9160659313201904	-6.885234832763672
Na	2.1349098682403564	9.025053024291992	0.1072177141904831
O	1.3982042074203491	-0.46064847707748413	0.08572527766227722
H	0.7548683285713196	-0.8310383558273315	-0.29935210943222046
H	2.2978551387786865	-0.5342651605606079	-0.27416253089904785
O	0.2619030475616455	1.6382631063461304	-0.28460878133773804
H	0.7616416215896606	0.7783761620521545	-0.06529368460178375
H	0.8778449296951294	2.2704734802246094	-0.25311970710754395
O	-1.074914574623108	0.018092188984155655	0.9241615533828735
H	-0.6001266241073608	0.6377274394035339	0.566688597202301
H	-1.9240124225616455	0.21107792854309082	1.2517060041427612
O	-0.5655916929244995	-1.1113841533660889	-0.8947199583053589
H	-1.0403873920440674	-1.1598737239837646	-1.8207199573516846
H	-0.7712826132774353	-0.6784654855728149	-0.18588098883628845
