152

U	-1.6121937036514282	-1.811936378479004	-5.5404744148254395
O	-2.773608922958374	-3.3609721660614014	-4.466436386108398
O	1.2471683025360107	-2.6062281131744385	-5.318358898162842
O	-0.04423149302601814	0.27668118476867676	-6.1026763916015625
O	-1.0356229543685913	-2.5999886989593506	-7.2261061668396
O	0.38853591680526733	-3.718236207962036	-4.776213645935059
O	-3.3971714973449707	-1.7400966882705688	-4.959210395812988
O	-0.8711289167404175	-1.1961954832077026	-3.6055805683135986
O	-1.5968117713928223	0.42059117555618286	-5.926704406738281
U	-4.645024299621582	-3.1258628368377686	-2.4998037815093994
U	2.645298480987549	-3.8775298595428467	-3.604799509048462
U	-0.8127343654632568	2.1885907649993896	-5.548947811126709
Na	-2.585810899734497	0.3121446967124939	-2.5974135398864746
Na	-0.9527771472930908	-3.5638089179992676	-1.9126371145248413
Na	1.435636043548584	-0.10128787159919739	-3.1310720443725586
O	-4.516401290893555	-4.536259651184082	-1.0876294374465942
O	-3.7025270462036133	-4.911284923553467	-2.083493232727051
O	-3.1051383018493652	-1.888676404953003	-1.954012393951416
O	-5.4826884269714355	-0.9162664413452148	-2.853959798812866
O	-5.723565101623535	-3.5761520862579346	-4.066710472106934
O	-5.910555839538574	-1.3734638690948486	-1.5745854377746582
O	3.1001157760620117	-5.052099227905273	-4.945181369781494
O	4.517718315124512	-3.017223834991455	-3.0355939865112305
O	1.5040392875671387	-2.811619758605957	-2.3504559993743896
O	1.2629971504211426	-5.923414707183838	-2.6177124977111816
O	3.897263526916504	-2.470423460006714	-4.110762596130371
O	2.6410486698150635	-5.716642379760742	-1.9860713481903076
O	1.7849290370941162	2.531323194503784	-5.26071310043335
O	-0.430442750453949	3.066553831100464	-7.053153991699219
O	-2.7628438472747803	3.043666124343872	-4.844740867614746
O	-1.8091058731079102	4.313923358917236	-4.415524482727051
O	1.1948189735412598	3.778622627258301	-4.649148464202881
O	-0.5637080073356628	1.6377902030944824	-3.527820348739624
O	-3.8932673931121826	0.5196667909622192	-0.5637494325637817
O	-2.216221570968628	2.9916796684265137	-1.8503587245941162
O	-2.165933132171631	-3.9904863834381104	0.39658480882644653
O	0.4183623194694519	-4.408751487731934	-0.004282934591174126
O	2.305349588394165	2.340216636657715	-2.3357317447662354
O	3.48283052444458	-0.38567090034484863	-1.8036773204803467
U	-3.26291823387146	-5.621616363525391	0.9703259468078613
Na	-3.7941527366638184	-1.3781455755233765	0.6189689636230469
U	-5.847395896911621	0.6063371300697327	-0.4908803701400757
U	4.98461389541626	-0.8630501627922058	-3.271092176437378
Na	3.1371524333953857	-2.9323341846466064	-0.2668329179286957
U	1.1746147871017456	-6.252496242523193	-0.6119251847267151
U	3.7707886695861816	3.267101764678955	-3.582144260406494
U	-2.8932621479034424	4.160045146942139	-3.478473663330078
Na	-0.09904666244983673	3.873836040496826	-1.9387387037277222
Na	-2.8734912872314453	2.913795232772827	0.36007991433143616
Na	-0.26287245750427246	-3.323014259338379	1.4629404544830322
Na	3.784282684326172	1.9358898401260376	-0.537441611289978
O	-2.995211362838745	-5.39811372756958	2.474167585372925
O	-3.883906364440918	-7.259016513824463	0.012660883367061615
O	-1.35733962059021	-6.719717025756836	-0.7561564445495605
O	-4.234869003295898	-4.727080821990967	1.875110387802124
O	-1.192449688911438	-6.780776023864746	0.6853818893432617
O	-2.2683606147766113	-2.291806936264038	2.4445652961730957
O	-3.30810546875	0.4632114768028259	2.1632509231567383
O	-7.547337055206299	1.1927223205566406	-1.4418232440948486
O	-5.106098175048828	2.9860241413116455	-1.5492912530899048
O	-5.925050735473633	1.6845389604568481	1.180201530456543
O	-4.922684669494629	2.5140490531921387	-2.6673736572265625
O	-6.150667667388916	0.13820868730545044	1.089982032775879
O	6.5097975730896	-0.9262486696243286	-4.146860122680664
O	4.241799831390381	1.3392608165740967	-4.2707624435424805
O	5.082757949829102	1.6259496212005615	-3.246185541152954
O	6.02042293548584	-1.7890231609344482	-0.9040795564651489
O	6.212512493133545	-0.019693806767463684	-0.9054073691368103
O	3.927942991256714	-0.3795861005783081	0.8643467426300049
O	2.2115886211395264	-3.0311403274536133	1.5725178718566895
O	1.9469971656799316	-6.124322414398193	1.7724937200546265
O	1.3656047582626343	-8.239046096801758	-0.2317643165588379
O	2.9463677406311035	-5.890575885772705	0.8186765909194946
O	2.487231492996216	5.447384357452393	-2.7236266136169434
O	3.7372355461120605	4.994321346282959	-2.165064573287964
O	3.946983575820923	4.038275241851807	-5.37006950378418
O	-2.2138519287109375	5.969724655151367	-1.7544686794281006
O	-4.813850402832031	5.1559529304504395	-3.5663039684295654
O	-3.171840190887451	5.7014546394348145	-0.824981689453125
O	1.830905556678772	4.095913410186768	-0.2172677367925644
O	-0.7658410668373108	4.372438430786133	0.1960478276014328
O	-1.7530916929244995	2.6978845596313477	2.383657217025757
O	0.4839353859424591	-1.6289842128753662	3.4816946983337402
O	3.1383938789367676	2.1637022495269775	1.6320801973342896
U	-3.826690196990967	-3.030972480773926	3.5077884197235107
Na	-1.3203052282333374	0.10787302255630493	3.627375364303589
U	-4.859923839569092	0.865227997303009	3.3099260330200195
U	6.014575481414795	-1.0983704328536987	1.237296223640442
Na	2.301102638244629	-0.24696502089500427	2.617919921875
U	3.126088857650757	-4.394314289093018	3.0038130283355713
U	2.7093448638916016	5.794615268707275	-0.664448082447052
U	-0.8529860973358154	6.394577980041504	-0.05834488570690155
Na	0.6449756622314453	3.5507822036743164	1.9587599039077759
U	-2.0491504669189453	4.024581432342529	3.827493667602539
U	0.28421032428741455	-2.5081095695495605	5.521461009979248
U	4.832757472991943	2.9658091068267822	2.6100759506225586
O	-1.8132970333099365	-2.390768051147461	5.288533687591553
O	-4.2311248779296875	-1.2244762182235718	4.35987663269043
O	-1.094862937927246	-3.7971200942993164	4.687587738037109
O	-5.083082675933838	-1.6169350147247314	3.2292466163635254
O	-4.144282817840576	-4.091531753540039	5.20969295501709
O	0.8930977582931519	1.2340946197509766	3.568115711212158
O	-4.370054721832275	3.053948163986206	3.3096065521240234
O	-6.424844264984131	0.9302359819412231	4.247536659240723
O	-3.827960252761841	2.135289192199707	4.42172908782959
O	5.581002235412598	1.110003113746643	2.7157788276672363
O	7.463522911071777	-1.1725702285766602	1.9719951152801514
O	5.220717906951904	-3.1876461505889893	1.5024614334106445
O	5.981715679168701	1.4976885318756104	1.4185845851898193
O	5.0273356437683105	-2.4312262535095215	2.874812364578247
O	2.7032289505004883	-3.311655282974243	4.665242671966553
O	1.720338225364685	-4.342331886291504	4.31537389755249
O	4.626020431518555	-5.3543877601623535	3.515728235244751
O	3.546887159347534	7.399725437164307	-0.6612105369567871
O	4.458558559417725	4.761974334716797	0.7666600942611694
O	3.720308780670166	5.116849422454834	1.639495611190796
O	1.023618459701538	6.767340183258057	0.6856166124343872
O	0.6891049146652222	6.784821510314941	-0.7674667835235596
O	-1.667075276374817	8.106405258178711	0.6892325282096863
O	-1.6004118919372559	5.726753234863281	2.8261449337005615
O	-2.870237350463867	5.56712007522583	1.9765052795410156
O	-2.813467264175415	4.9132609367370605	5.338177680969238
O	-1.101504921913147	2.5281810760498047	5.3102264404296875
O	-0.2149805724620819	3.7764010429382324	4.75443172454834
O	0.40187013149261475	-0.28869470953941345	6.103408336639404
O	0.7803093194961548	-3.169140100479126	6.975890159606934
O	1.783936619758606	-0.16233190894126892	5.849100589752197
O	2.84963321685791	3.3922905921936035	4.435003757476807
O	5.909623622894287	3.6885721683502197	3.6124627590179443
O	3.489800453186035	2.3147737979888916	4.75084114074707
U	0.4495898485183716	1.7876613140106201	5.730917930603027
O	1.4379442930221558	2.5786731243133545	7.056789398193359
Na	-6.947040557861328	3.5554332733154297	-3.1433448791503906
Na	7.020375728607178	-3.496823310852051	3.2104687690734863
Na	0.9597973823547363	-4.241675853729248	-7.211233615875244
Na	-1.304936170578003	4.002198696136475	7.164236068725586
Na	-2.015338897705078	-9.061908721923828	0.09457691013813019
Na	-2.288719892501831	-3.856346368789673	7.114309310913086
Na	2.366955518722534	3.707610845565796	-6.989785671234131
Na	2.070199966430664	9.10853385925293	0.15594780445098877
O	1.43137526512146	-0.5091517567634583	0.049218952655792236
H	0.7271590232849121	-0.9584081172943115	-0.3404148817062378
H	2.2714664936065674	-0.48430490493774414	-0.2901401221752167
O	0.2977515161037445	1.7739448547363281	-0.19724459946155548
H	0.7114487886428833	1.0296480655670166	-0.041455335915088654
H	0.7736185789108276	2.4978187084198	-0.19630056619644165
O	-1.133908987045288	0.16111204028129578	0.9478943347930908
H	-0.6234129667282104	0.9179554581642151	0.569308340549469
H	-1.9126018285751343	0.4103575348854065	1.2340888977050781
O	-0.4720780551433563	-1.2434475421905518	-0.8428419828414917
H	-0.9863429069519043	-1.247209906578064	-1.773467779159546
H	-0.6995999217033386	-0.8604975938796997	-0.18410560488700867
