152

U	-0.8056026697158813	-1.2539873123168945	-5.834917068481445
O	-2.8035409450531006	-3.0974531173706055	-4.524084091186523
O	1.2272801399230957	-2.679001569747925	-5.286227226257324
O	0.0015549585223197937	0.3460521996021271	-6.113229751586914
O	-1.0366926193237305	-2.5552868843078613	-7.177635192871094
O	0.3943042457103729	-3.6820294857025146	-4.784562110900879
O	-3.3144612312316895	-1.8391313552856445	-4.932717800140381
O	-0.7128388285636902	-1.3458374738693237	-3.576594591140747
O	-1.5249953269958496	0.41560599207878113	-5.931580066680908
U	-4.767601490020752	-2.1853179931640625	-3.6003592014312744
U	2.9643592834472656	-4.375727653503418	-3.3356010913848877
U	-0.7097599506378174	1.814605712890625	-5.737278938293457
Na	-2.5194735527038574	0.6165655255317688	-2.600722074508667
Na	-0.8072258234024048	-3.5060184001922607	-2.040884017944336
Na	1.500389814376831	-0.3215988874435425	-3.2145044803619385
O	-4.566637992858887	-4.422975063323975	-1.1080290079116821
O	-3.5282628536224365	-4.955278396606445	-2.0949480533599854
O	-3.1085493564605713	-1.8112887144088745	-1.9316383600234985
O	-5.562407493591309	-0.6394968628883362	-2.8294341564178467
O	-5.619044303894043	-3.7575244903564453	-4.049941539764404
O	-5.857082843780518	-1.4280387163162231	-1.6105390787124634
O	3.1394901275634766	-5.2042155265808105	-4.971177101135254
O	4.504123687744141	-2.9242773056030273	-3.037490129470825
O	1.5566027164459229	-2.8725545406341553	-2.3625476360321045
O	1.301975965499878	-5.871700286865234	-2.572280168533325
O	3.8853695392608643	-2.2151310443878174	-4.1394524574279785
O	2.592679262161255	-5.75059700012207	-1.929426908493042
O	1.7935221195220947	2.434706687927246	-5.194140434265137
O	-0.46272730827331543	3.0175647735595703	-7.009625434875488
O	-2.7129485607147217	3.022144317626953	-4.660050868988037
O	-1.7322924137115479	4.139888763427734	-4.441857814788818
O	1.2542427778244019	3.606710433959961	-4.654074192047119
O	-0.5650397539138794	1.5934594869613647	-3.4766368865966797
O	-3.908346176147461	0.639924943447113	-0.5865933299064636
O	-2.109048366546631	2.9988839626312256	-1.8232821226119995
O	-1.9007467031478882	-3.945246696472168	0.2808070182800293
O	0.6195829510688782	-4.46357536315918	-0.04784943163394928
O	2.252676248550415	2.180608034133911	-2.2769429683685303
O	3.477660894393921	-0.29137179255485535	-1.798038363456726
U	-3.2604568004608154	-5.547438144683838	-0.5407246947288513
Na	-3.5131142139434814	-1.7962700128555298	0.4819391369819641
U	-5.872930526733398	1.2817708253860474	-1.443100929260254
U	5.516722679138184	-0.1250935196876526	-2.2898972034454346
Na	3.4197187423706055	-2.529498815536499	-0.28069376945495605
U	1.6635984182357788	-6.425779342651367	0.10308021306991577
U	3.3296382427215576	3.2609851360321045	-3.5431151390075684
U	-3.382909059524536	4.487859725952148	-2.4821557998657227
Na	-0.05667893588542938	3.800079345703125	-2.10990834236145
Na	-2.988478183746338	2.6819443702697754	0.3650018870830536
Na	-0.2724897265434265	-2.948157548904419	1.5939542055130005
Na	3.8691673278808594	1.7648828029632568	-0.5914368629455566
O	-3.0930187702178955	-5.19049072265625	2.5381391048431396
O	-4.061987400054932	-7.12820291519165	-0.02125397138297558
O	-1.1272640228271484	-6.618747711181641	-0.8038843870162964
O	-4.252218246459961	-4.595396995544434	1.8670319318771362
O	-0.9663775563240051	-6.7535247802734375	0.5656803250312805
O	-2.2095041275024414	-2.248741865158081	2.4174599647521973
O	-3.3039257526397705	0.2869354784488678	2.1771323680877686
O	-7.514286518096924	1.409401535987854	-1.427431344985962
O	-5.031800270080566	3.084404468536377	-1.5576863288879395
O	-5.973769664764404	1.609961986541748	1.198204755783081
O	-4.908668518066406	2.3766555786132812	-2.788803815841675
O	-6.209235668182373	0.1675289422273636	1.1153525114059448
O	6.559383869171143	-0.7357124090194702	-4.2131500244140625
O	4.281770706176758	1.1222320795059204	-4.280427932739258
O	4.9734296798706055	1.8441725969314575	-3.185373306274414
O	5.991073131561279	-1.5244712829589844	-0.8920714259147644
O	6.216616630554199	-0.10446798801422119	-0.9429598450660706
O	3.919163703918457	-0.5149516463279724	0.8334958553314209
O	2.3116960525512695	-2.935029983520508	1.6476731300354004
O	1.9977432489395142	-6.0225114822387695	1.8102308511734009
O	1.4892593622207642	-8.11929988861084	-0.2863479256629944
O	3.1099302768707275	-5.69511079788208	0.8454681634902954
O	2.5447046756744385	5.321399211883545	-2.7867441177368164
O	3.7713139057159424	4.7666449546813965	-2.2019834518432617
O	3.837414264678955	4.224452972412109	-5.248178482055664
O	-2.173095226287842	5.865869522094727	-1.7490661144256592
O	-4.717260837554932	5.215514659881592	-3.5461223125457764
O	-3.212501287460327	5.554421424865723	-0.8489968776702881
O	1.766973614692688	4.061947345733643	-0.1909840852022171
O	-0.8065335750579834	4.424919605255127	0.24496683478355408
O	-1.6118520498275757	2.9252848625183105	2.1966300010681152
O	0.5283406972885132	-1.721101999282837	3.397413492202759
O	3.116096019744873	2.1408886909484863	1.6211094856262207
U	-3.42291522026062	-3.6770918369293213	3.42928147315979
Na	-1.2977405786514282	0.2731386423110962	3.573760509490967
U	-5.252869606018066	-0.18046414852142334	3.180861473083496
U	5.725027561187744	-0.9527246356010437	2.007525682449341
Na	2.35005259513855	-0.5191269516944885	2.5359933376312256
U	2.8402957916259766	-4.473508834838867	3.0236105918884277
U	2.2689452171325684	5.8588409423828125	0.2833290696144104
U	-0.8209735155105591	6.177858829498291	1.3332229852676392
Na	0.8424792885780334	3.3981926441192627	2.0101194381713867
U	-1.6987007856369019	3.7709403038024902	4.280841827392578
U	1.3389136791229248	-1.6051015853881836	5.5955071449279785
U	4.592067241668701	3.0089292526245117	2.6405751705169678
O	-1.7492681741714478	-2.42935848236084	5.209303855895996
O	-4.235630989074707	-1.2399638891220093	4.356146812438965
O	-1.141299843788147	-3.7389354705810547	4.713387489318848
O	-5.077516078948975	-1.7455693483352661	3.21797776222229
O	-4.105011463165283	-4.147679805755615	5.187211990356445
O	0.8839766383171082	1.3023910522460938	3.5175554752349854
O	-4.374762058258057	2.8783929347991943	3.317962408065796
O	-6.50554084777832	0.6812886595726013	4.339094638824463
O	-3.7968785762786865	2.099106788635254	4.398935794830322
O	5.603570461273193	0.9813287854194641	2.685765027999878
O	7.542607307434082	-1.142831563949585	1.8554043769836426
O	5.221416473388672	-3.0476677417755127	1.5305562019348145
O	5.895910263061523	1.6009842157363892	1.440747618675232
O	5.003419876098633	-2.481645107269287	2.8317172527313232
O	2.687553882598877	-3.2377188205718994	4.677433013916016
O	1.7701754570007324	-4.11470890045166	4.383142948150635
O	4.69224739074707	-5.273525714874268	3.5012471675872803
O	3.48266339302063	7.447375297546387	-0.6003547310829163
O	4.530728340148926	4.599433898925781	0.743373453617096
O	3.611921548843384	5.162564277648926	1.6158037185668945
O	0.859385073184967	6.704497814178467	0.6616482734680176
O	0.5880966782569885	6.697289943695068	-0.7121757864952087
O	-1.6361700296401978	8.050830841064453	0.7828170657157898
O	-1.5893803834915161	5.725444316864014	2.6221649646759033
O	-2.8275749683380127	5.533057689666748	1.8964403867721558
O	-2.7526907920837402	4.907717227935791	5.351443767547607
O	-1.0431419610977173	2.632561206817627	5.248096466064453
O	-0.18348582088947296	3.6948750019073486	4.716105937957764
O	0.3656936287879944	-0.11441291868686676	6.098093509674072
O	0.7548336386680603	-3.128877878189087	7.046737194061279
O	1.8525043725967407	-0.33594733476638794	5.851537227630615
O	2.850700616836548	3.4975271224975586	4.399324417114258
O	5.635199069976807	4.086213111877441	3.6191346645355225
O	3.5337677001953125	2.269179582595825	4.723165988922119
U	1.7988024950027466	2.324934959411621	5.129962921142578
O	1.4224164485931396	2.5821945667266846	7.092137813568115
Na	-6.901588439941406	3.597038507461548	-3.1235618591308594
Na	7.095222473144531	-3.4141576290130615	3.2707881927490234
Na	0.9611396193504333	-4.322837829589844	-7.090355396270752
Na	-1.2966105937957764	4.073922634124756	7.0616583824157715
Na	-2.1439664363861084	-9.167319297790527	0.1480197310447693
Na	-2.3771514892578125	-3.7249526977539062	7.191291809082031
Na	2.2772634029388428	3.8702163696289062	-6.85921573638916
Na	2.2063980102539062	9.162521362304688	0.12742221355438232
O	1.410304307937622	-0.3710291087627411	0.027138710021972656
H	0.6964942216873169	-0.8116325736045837	-0.3358008861541748
H	2.2744204998016357	-0.4117555618286133	-0.3468853831291199
O	0.38634800910949707	1.6342191696166992	-0.2342343032360077
H	0.7819105982780457	0.8451659679412842	-0.08855631202459335
H	0.9201564788818359	2.3448424339294434	-0.26413610577583313
O	-1.073431372642517	0.10364818572998047	0.9013234376907349
H	-0.5992955565452576	0.6592700481414795	0.5655278563499451
H	-1.9393975734710693	0.13197463750839233	1.2746236324310303
O	-0.5267400741577148	-1.2435462474822998	-0.84404057264328
H	-1.0130641460418701	-1.3529126644134521	-1.7065751552581787
H	-0.7739880084991455	-0.7703925967216492	-0.1423821598291397
