152

U	-0.8296734094619751	-2.5676960945129395	-5.293406963348389
O	-2.846345901489258	-3.1791024208068848	-4.469476699829102
O	1.1828364133834839	-2.665731906890869	-5.3377556800842285
O	-0.0852309912443161	0.22365668416023254	-6.126845359802246
O	-1.0995042324066162	-2.571600914001465	-7.208026885986328
O	0.3272269368171692	-3.746849298477173	-4.816330432891846
O	-3.328756093978882	-1.860039234161377	-4.910971641540527
O	-0.755959689617157	-1.4570746421813965	-3.512054681777954
O	-1.5869290828704834	0.3072893023490906	-5.924787521362305
U	-4.876554012298584	-2.1286160945892334	-2.518658399581909
U	2.8952929973602295	-3.83733868598938	-3.6918232440948486
U	-0.8890596628189087	1.494507074356079	-5.598113536834717
Na	-2.606696605682373	0.4300397038459778	-2.584826707839966
Na	-0.9152808785438538	-3.6854867935180664	-2.0057735443115234
Na	1.4786994457244873	-0.3098180890083313	-3.2097010612487793
O	-4.528774261474609	-4.344182968139648	-1.142696738243103
O	-3.526008129119873	-4.9120283126831055	-2.0794448852539062
O	-3.056105852127075	-1.7794740200042725	-1.9247767925262451
O	-5.484768390655518	-0.6511065363883972	-2.820563793182373
O	-5.636331558227539	-3.739567995071411	-4.083002090454102
O	-5.844808578491211	-1.481627106666565	-1.6581929922103882
O	3.0178847312927246	-5.241374969482422	-4.921109199523926
O	4.422816753387451	-3.0211455821990967	-3.0176546573638916
O	1.573960781097412	-2.845050096511841	-2.3858864307403564
O	1.2685909271240234	-5.825288772583008	-2.5707545280456543
O	3.8453969955444336	-2.201406955718994	-4.185034275054932
O	2.5380313396453857	-5.661797523498535	-2.03410005569458
O	1.7535680532455444	2.3999781608581543	-5.307804107666016
O	-0.4417080879211426	3.0870821475982666	-7.019792556762695
O	-2.7297768592834473	3.084296226501465	-4.730282783508301
O	-1.842597484588623	4.059410095214844	-4.524079322814941
O	1.2142906188964844	3.59883713722229	-4.756640434265137
O	-0.5465545654296875	1.6302478313446045	-3.49838924407959
O	-3.8949060440063477	0.5839129686355591	-0.5679743885993958
O	-2.2389461994171143	2.938754081726074	-1.9027929306030273
O	-1.9615038633346558	-3.879646062850952	0.27812784910202026
O	0.5502188205718994	-4.3578104972839355	-0.10206282138824463
O	2.2713146209716797	2.233224630355835	-2.3541433811187744
O	3.44081974029541	-0.3563764691352844	-1.7991846799850464
U	-3.11503529548645	-5.5214524269104	-0.5919665098190308
Na	-3.6213018894195557	-1.9391034841537476	0.4567345082759857
U	-5.793908596038818	0.5539455413818359	-0.33640605211257935
U	5.451997756958008	-0.6981484889984131	-2.6788129806518555
Na	3.3272690773010254	-2.619600772857666	-0.32844850420951843
U	0.7173787355422974	-6.3257598876953125	0.7466549873352051
U	2.8428187370300293	3.3354735374450684	-4.090662479400635
U	-4.046065330505371	3.3413925170898438	-3.0060067176818848
Na	-0.05702270567417145	3.7501494884490967	-2.099591016769409
Na	-2.9565727710723877	2.716616630554199	0.3291124105453491
Na	-0.4281247854232788	-3.197493553161621	1.6193060874938965
Na	3.786914110183716	1.6669448614120483	-0.6600121259689331
O	-3.082335948944092	-5.169763088226318	2.6204721927642822
O	-4.011183738708496	-6.984626770019531	0.016765806823968887
O	-1.1557326316833496	-6.54587459564209	-0.7808193564414978
O	-4.268675804138184	-4.560213088989258	1.8773858547210693
O	-0.9933971762657166	-6.671131134033203	0.5236808657646179
O	-2.2458696365356445	-2.336064100265503	2.4323034286499023
O	-3.298676013946533	0.31924769282341003	2.1665573120117188
O	-7.587418079376221	1.327462077140808	-1.4274804592132568
O	-5.085269451141357	3.0039563179016113	-1.5894429683685303
O	-5.941600322723389	1.651516079902649	1.1594284772872925
O	-4.975815773010254	2.2617077827453613	-2.822003126144409
O	-6.202249050140381	0.19295090436935425	1.0488603115081787
O	6.534720420837402	-0.8577579259872437	-4.122960090637207
O	4.225193977355957	1.0041571855545044	-4.338582515716553
O	4.952197551727295	1.7887598276138306	-3.158795118331909
O	5.995639324188232	-1.6106703281402588	-0.9349409341812134
O	6.190371990203857	-0.19130839407444	-0.9665751457214355
O	3.899693012237549	-0.5331956148147583	0.7832397222518921
O	2.3052570819854736	-2.9822051525115967	1.6643037796020508
O	2.046886920928955	-5.996428489685059	1.8699537515640259
O	1.4436836242675781	-8.000823974609375	-0.35571739077568054
O	3.060012102127075	-5.7299275398254395	0.8259193301200867
O	2.4878180027008057	5.238770008087158	-2.8626880645751953
O	3.7680649757385254	4.723907470703125	-2.258570909500122
O	3.8150687217712402	4.243072509765625	-5.28260612487793
O	-2.2993717193603516	5.831251621246338	-1.8071249723434448
O	-4.840580940246582	5.113850116729736	-3.547485113143921
O	-3.2918500900268555	5.513520240783691	-0.8871853351593018
O	1.7400753498077393	3.956460475921631	-0.2408655285835266
O	-0.9075047969818115	4.231147766113281	0.19913986325263977
O	-1.6617387533187866	2.855710029602051	2.2866640090942383
O	0.47026920318603516	-1.7846349477767944	3.3398449420928955
O	3.097466230392456	2.1165151596069336	1.6383142471313477
U	-3.1380786895751953	-3.820045232772827	3.5922493934631348
Na	-1.3994362354278564	0.16776178777217865	3.557002067565918
U	-5.356795310974121	0.526340901851654	2.632943630218506
U	5.777523994445801	-0.8348584771156311	1.8256932497024536
Na	2.268249034881592	-0.5622822046279907	2.493870973587036
U	3.1018567085266113	-4.6214189529418945	2.988088846206665
U	2.5973031520843506	5.904327869415283	-0.2499421238899231
U	-1.035512089729309	6.308548927307129	-0.5164350271224976
Na	0.7098177075386047	3.3145368099212646	1.9574098587036133
U	-3.013601064682007	3.859541893005371	3.767045021057129
U	0.9371254444122314	-2.3593690395355225	5.4704694747924805
U	4.7517242431640625	3.5156967639923096	2.2620553970336914
O	-1.8327738046646118	-2.5164577960968018	5.188223361968994
O	-4.2611589431762695	-1.2923446893692017	4.297616004943848
O	-1.1775004863739014	-3.7197229862213135	4.6453070640563965
O	-5.064059734344482	-1.7262163162231445	3.2037971019744873
O	-4.132063388824463	-4.201658725738525	5.179770469665527
O	0.8687481880187988	1.2667419910430908	3.4427387714385986
O	-4.406783103942871	2.8762614727020264	3.3346035480499268
O	-6.54946231842041	0.6702321767807007	4.259726047515869
O	-3.8927316665649414	2.0455446243286133	4.378539085388184
O	5.618222713470459	0.9639631509780884	2.689517021179199
O	7.470183372497559	-1.3502873182296753	1.8496482372283936
O	5.225906848907471	-3.0744130611419678	1.5484856367111206
O	5.942581653594971	1.6380226612091064	1.4701569080352783
O	5.008511066436768	-2.506894111633301	2.8514392375946045
O	2.685652732849121	-3.253185510635376	4.695709228515625
O	1.6749294996261597	-4.201699733734131	4.3661603927612305
O	4.697072982788086	-5.331547737121582	3.5431575775146484
O	3.456552028656006	7.41900110244751	-0.6238514184951782
O	4.554945945739746	4.5705718994140625	0.724107027053833
O	3.6322853565216064	5.171534538269043	1.6283693313598633
O	0.7724103927612305	6.553653240203857	0.6204812526702881
O	0.5398937463760376	6.5995588302612305	-0.7006216645240784
O	-1.8455474376678467	7.880288124084473	0.7678305506706238
O	-1.5878232717514038	5.680325031280518	2.6712071895599365
O	-2.878767728805542	5.4955549240112305	1.929801344871521
O	-2.7744300365448	4.9125189781188965	5.448547840118408
O	-1.053433895111084	2.5297017097473145	5.253512382507324
O	-0.2013643980026245	3.6899611949920654	4.677722454071045
O	0.31939753890037537	-0.1455685794353485	6.043832302093506
O	0.7198628187179565	-3.1008331775665283	6.945836544036865
O	1.8005963563919067	-0.3711739182472229	5.794775009155273
O	2.8249948024749756	3.4333267211914062	4.415143966674805
O	5.832639217376709	4.212862014770508	3.779695987701416
O	3.5040183067321777	2.204155683517456	4.734320163726807
U	1.7040812969207764	2.741152286529541	5.138150691986084
O	1.4533817768096924	2.621445655822754	7.100595951080322
Na	-6.896116733551025	3.624626636505127	-3.1329641342163086
Na	7.116247177124023	-3.502101182937622	3.2933616638183594
Na	0.9228494763374329	-4.338728904724121	-7.075342655181885
Na	-1.2807077169418335	4.102665901184082	7.105285167694092
Na	-2.143521308898926	-9.14893913269043	0.16041980683803558
Na	-2.350473165512085	-3.7324023246765137	7.115546226501465
Na	2.275408983230591	3.9152116775512695	-6.917740821838379
Na	2.1927497386932373	9.229223251342773	0.11154551059007645
O	1.4046381711959839	-0.4338734745979309	0.07266201078891754
H	0.72342848777771	-0.7885127067565918	-0.33755025267601013
H	2.262838840484619	-0.503726601600647	-0.31970590353012085
O	0.35672134160995483	1.6205872297286987	-0.2489018738269806
H	0.7811476588249207	0.7847533822059631	-0.055018261075019836
H	0.892734169960022	2.2467503547668457	-0.2424287497997284
O	-1.062948226928711	0.029493477195501328	0.931289792060852
H	-0.591688871383667	0.6504791975021362	0.574813723564148
H	-1.9477699995040894	0.22124174237251282	1.2618639469146729
O	-0.5372060537338257	-1.1686292886734009	-0.8896967172622681
H	-1.0306545495986938	-1.2229220867156982	-1.8243780136108398
H	-0.7731296420097351	-0.6873270273208618	-0.1949550062417984
