48

U	-4.526738166809082	-0.0640440583229065	0.2796974182128906
O	-3.4402663707733154	0.011641236953437328	-1.250254511833191
O	-5.560297966003418	0.009672999382019043	1.654564380645752
U	2.064873218536377	-3.6461751461029053	0.5219796895980835
U	-1.9089981317520142	-3.733593463897705	0.5409382581710815
O	-1.6065747737884521	-2.827202320098877	-1.3500534296035767
O	-2.70896577835083	-4.5771684646606445	1.7509238719940186
O	1.4322314262390137	-2.961343288421631	-1.253922939300537
O	2.476710557937622	-4.662603378295898	1.8711835145950317
O	-0.2052428424358368	-3.3026809692382812	1.3355976343154907
O	-0.08101949095726013	-4.667745590209961	0.5149231553077698
O	-4.1740031242370605	-2.2470951080322266	0.3516671061515808
O	-3.199906349182129	-1.489016056060791	1.1160163879394531
U	1.699498176574707	3.764540910720825	0.6761602163314819
U	-2.6146883964538574	3.5533244609832764	0.3804909586906433
U	3.9602811336517334	0.37013402581214905	0.3252311646938324
O	-1.7077090740203857	2.8417787551879883	-1.3728938102722168
O	3.1509833335876465	-0.046192578971385956	-1.2504979372024536
O	1.4061839580535889	2.937268018722534	-1.0883642435073853
O	2.275383234024048	4.641355991363525	2.0237016677856445
O	5.234964370727539	-0.03015720471739769	1.8333460092544556
O	-2.784909248352051	4.5835371017456055	1.753096342086792
O	-0.2979608476161957	3.4045817852020264	1.2534388303756714
O	-0.2054213136434555	4.690840721130371	0.5598524212837219
O	-4.348150253295898	2.2733945846557617	0.33852502703666687
O	-3.1806440353393555	1.530719518661499	1.25811767578125
O	2.664982318878174	1.6272406578063965	1.4283702373504639
O	3.8562183380126953	2.280808210372925	0.6316157579421997
O	2.8199079036712646	-1.6422743797302246	1.2194457054138184
O	3.972442626953125	-2.233403444290161	0.4307921826839447
O	-6.497819423675537	0.8134984970092773	-1.044464349746704
H	-6.440774917602539	1.142651915550232	-1.8649678230285645
H	-7.242450714111328	1.1461726427078247	-0.31347864866256714
O	-2.448094129562378	-6.016234397888184	-1.0517663955688477
H	-2.570966958999634	-6.759376525878906	-0.3057818114757538
H	-2.2234957218170166	-6.139633655548096	-1.8180408477783203
O	3.4302561283111572	-5.342370510101318	-1.0201770067214966
H	4.284244060516357	-5.795657634735107	-0.38627225160598755
H	3.824488401412964	-5.1855058670043945	-1.7337363958358765
O	6.333175182342529	-0.814879298210144	-0.9751054048538208
H	6.234991550445557	-1.0579736232757568	-1.8049319982528687
H	6.987373352050781	-1.1024364233016968	-0.4631343483924866
O	3.535801887512207	5.166386127471924	-0.9205795526504517
H	3.8950650691986084	4.938197612762451	-1.711552619934082
H	4.288897514343262	5.598004341125488	-0.24158339202404022
O	-2.7736761569976807	5.868239402770996	-0.9966795444488525
H	-2.299038887023926	6.157649040222168	-1.7583072185516357
H	-2.674145460128784	6.794827461242676	-0.29487526416778564
