48

U	-4.723981857299805	-0.8082571029663086	0.29489395022392273
O	-3.4737205505371094	-0.009252493269741535	-1.2127723693847656
O	-5.489694118499756	-0.006706953048706055	1.8339271545410156
U	1.9106792211532593	-3.9245810508728027	0.556735098361969
U	-2.5721077919006348	-3.4591403007507324	0.28195226192474365
O	-1.6511657238006592	-2.856703281402588	-1.2455083131790161
O	-2.6078763008117676	-4.616101264953613	1.9077225923538208
O	1.4750133752822876	-2.9635791778564453	-1.2630243301391602
O	2.4256484508514404	-4.706767559051514	1.7985033988952637
O	-0.2482258826494217	-3.28249454498291	1.3366743326187134
O	-0.14605343341827393	-4.628231048583984	0.5381745100021362
O	-4.1184587478637695	-2.216801881790161	0.4986407458782196
O	-3.0772252082824707	-1.5991172790527344	1.2787554264068604
U	2.010829210281372	3.882611036300659	0.05193138122558594
U	-1.9870076179504395	3.817131280899048	0.6102064847946167
U	4.022725582122803	0.06542311608791351	0.40552595257759094
O	-1.7549704313278198	2.83675479888916	-1.3146018981933594
O	3.1262621879577637	-0.07220043241977692	-1.282808542251587
O	1.3711156845092773	2.9616281986236572	-1.2210338115692139
O	2.424304723739624	4.729442119598389	1.7309601306915283
O	5.180719375610352	-0.08790060132741928	1.8720648288726807
O	-2.7035770416259766	4.396620750427246	1.916641354560852
O	-0.3447147011756897	3.3520829677581787	1.2781116962432861
O	-0.2516084611415863	4.612975120544434	0.5514618158340454
O	-4.254098892211914	2.252345561981201	0.3590705394744873
O	-3.063835620880127	1.5780951976776123	1.2829241752624512
O	2.606651782989502	1.7189586162567139	1.368124008178711
O	3.8005406856536865	2.2553720474243164	0.53824782371521
O	2.664430856704712	-1.6584577560424805	1.276619553565979
O	3.7878541946411133	-2.2825822830200195	0.5448794364929199
O	-6.5206217765808105	0.8377917408943176	-1.082892894744873
H	-6.454352378845215	1.137894630432129	-1.863844394683838
H	-7.204853534698486	1.1345384120941162	-0.30596378445625305
O	-2.464993715286255	-5.969151020050049	-0.8991190195083618
H	-2.5083820819854736	-6.803295135498047	-0.21776923537254333
H	-2.115088701248169	-6.145357131958008	-1.738205075263977
O	3.539869785308838	-5.276841640472412	-0.9985432624816895
H	4.3144989013671875	-5.773386478424072	-0.33183079957962036
H	3.8567206859588623	-5.157585620880127	-1.761938214302063
O	6.252429008483887	-0.8285782337188721	-0.9686353206634521
H	6.24842643737793	-1.108768105506897	-1.7773140668869019
H	7.030518531799316	-1.170468807220459	-0.40909868478775024
O	3.5510458946228027	5.254345417022705	-1.0626025199890137
H	4.0919976234436035	5.024386405944824	-1.8917571306228638
H	4.490956783294678	5.676806926727295	-0.33304256200790405
O	-2.5991621017456055	5.9272847175598145	-0.9266281723976135
H	-2.2338292598724365	6.128554821014404	-1.752062439918518
H	-2.6184096336364746	6.772548675537109	-0.22107094526290894
