48

U	-4.523924350738525	0.37645223736763	0.5152229070663452
O	-3.5000698566436768	0.04996350035071373	-1.2301280498504639
O	-5.470328330993652	-0.02400711178779602	1.8925526142120361
U	1.4535537958145142	-4.1411027908325195	0.6204980611801147
U	-2.5055980682373047	-3.7584950923919678	0.3396607041358948
O	-1.7839504480361938	-2.705967664718628	-1.2195348739624023
O	-2.830686092376709	-4.585702419281006	1.7473959922790527
O	1.3951456546783447	-2.803797721862793	-1.1165581941604614
O	2.360705852508545	-4.500351905822754	2.0107030868530273
O	-0.23606982827186584	-3.155893325805664	1.4384002685546875
O	-0.18276143074035645	-4.566688060760498	0.48726147413253784
O	-4.09160041809082	-2.2919325828552246	0.49425479769706726
O	-3.0625507831573486	-1.5555416345596313	1.3202660083770752
U	1.6776602268218994	3.708754301071167	0.5526294112205505
U	-1.8918449878692627	3.8078510761260986	0.5257722735404968
U	4.38306999206543	0.3141263723373413	0.41861265897750854
O	-1.878636121749878	2.7497427463531494	-1.3361448049545288
O	3.2087368965148926	-0.021444158628582954	-1.2568813562393188
O	1.4101260900497437	2.853755474090576	-1.2286444902420044
O	2.3666272163391113	4.517882347106934	1.84296715259552
O	5.202226161956787	-0.1801494061946869	1.9161815643310547
O	-2.9103715419769287	4.4368672370910645	1.7446086406707764
O	-0.3515098989009857	3.249868631362915	1.3104016780853271
O	-0.3294309973716736	4.504250526428223	0.5608289241790771
O	-4.21992826461792	2.250749111175537	0.38401857018470764
O	-3.026808023452759	1.5645250082015991	1.261682152748108
O	2.677825689315796	1.6417670249938965	1.3833273649215698
O	3.74057674407959	2.230725049972534	0.6773403882980347
O	2.7011544704437256	-1.6636545658111572	1.3140697479248047
O	3.740922451019287	-2.311516761779785	0.46323633193969727
O	-6.6090216636657715	0.8290200233459473	-1.069557547569275
H	-6.611853122711182	1.112568736076355	-1.9565646648406982
H	-7.311803817749023	1.112947702407837	-0.33941635489463806
O	-2.6306450366973877	-5.951788902282715	-1.0773404836654663
H	-2.6476263999938965	-6.779202938079834	-0.23796114325523376
H	-2.2798211574554443	-6.201864242553711	-1.8364659547805786
O	3.607701539993286	-5.168513298034668	-0.9684963822364807
H	4.262402057647705	-5.680462837219238	-0.3163364827632904
H	3.794797420501709	-5.099910736083984	-1.6506181955337524
O	6.303915023803711	-0.7097434401512146	-1.0044834613800049
H	6.271020412445068	-1.1220389604568481	-1.8133984804153442
H	7.043753623962402	-1.1531888246536255	-0.45332780480384827
O	3.6032838821411133	5.158027648925781	-1.006453514099121
H	3.975346565246582	4.907973766326904	-1.8151443004608154
H	4.378093719482422	5.5190863609313965	-0.32676151394844055
O	-2.6441102027893066	5.886629104614258	-1.1001489162445068
H	-2.3191826343536377	6.094705581665039	-1.816795825958252
H	-2.6600825786590576	6.642436504364014	-0.2861751317977905
