48

U	-4.533588409423828	0.15211626887321472	0.3986930847167969
O	-3.4460253715515137	0.018905170261859894	-1.2998234033584595
O	-5.569797515869141	0.03978601098060608	1.745972990989685
U	2.0793895721435547	-3.700758457183838	0.007888257503509521
U	-1.6643315553665161	-3.810732126235962	0.6253229379653931
O	-1.7963494062423706	-2.787476062774658	-1.2085963487625122
O	-2.831829071044922	-4.501274585723877	1.9063546657562256
O	1.573469638824463	-2.8260653018951416	-1.2420893907546997
O	2.5743794441223145	-4.5919365882873535	1.703067421913147
O	-0.2348734736442566	-3.284186840057373	1.3365185260772705
O	-0.21713483333587646	-4.614508628845215	0.45130592584609985
O	-4.175112724304199	-2.2988178730010986	0.5434333682060242
O	-3.126119613647461	-1.6558479070663452	1.1905465126037598
U	1.9716393947601318	3.5954456329345703	0.689691424369812
U	-2.3438191413879395	3.7777259349823	0.2918948531150818
U	4.195079326629639	0.18534114956855774	0.4772634506225586
O	-1.8103458881378174	2.872927188873291	-1.2266780138015747
O	3.167938709259033	0.12307855486869812	-1.1700116395950317
O	1.463229775428772	2.872981071472168	-1.174344778060913
O	2.384221076965332	4.622527122497559	1.9184210300445557
O	5.254567623138428	0.10391666740179062	1.9112122058868408
O	-2.774163246154785	4.665292263031006	1.8565080165863037
O	-0.17710436880588531	3.2905282974243164	1.3410706520080566
O	-0.030891284346580505	4.637048721313477	0.48246830701828003
O	-4.233611583709717	2.345353126525879	0.3999112844467163
O	-3.0217912197113037	1.6189954280853271	1.2721221446990967
O	2.579129695892334	1.6726951599121094	1.4608670473098755
O	3.6791443824768066	2.358588218688965	0.6471897959709167
O	2.737147331237793	-1.7098408937454224	1.2520312070846558
O	3.853607654571533	-2.2110323905944824	0.5301037430763245
O	-6.553032398223877	0.7286849021911621	-1.205928921699524
H	-6.524693489074707	1.1599798202514648	-1.9520601034164429
H	-7.232606887817383	1.1716482639312744	-0.38357487320899963
O	-2.6801977157592773	-5.905092716217041	-0.9755650758743286
H	-2.6379969120025635	-6.711945056915283	-0.19621768593788147
H	-2.2535152435302734	-6.013707637786865	-1.8215837478637695
O	3.4326796531677246	-5.359546184539795	-1.0897619724273682
H	4.230067729949951	-5.806511878967285	-0.4797738194465637
H	3.797583818435669	-5.25015115737915	-1.7516673803329468
O	6.309413909912109	-0.5226706266403198	-0.995938777923584
H	6.216660976409912	-0.8812738656997681	-1.7529640197753906
H	6.99439811706543	-0.8652451038360596	-0.36842143535614014
O	3.6254398822784424	5.280730724334717	-0.9212557077407837
H	3.978543281555176	4.903406143188477	-1.7233126163482666
H	4.362766265869141	5.575047969818115	-0.2058490514755249
O	-2.742098093032837	5.862431049346924	-1.0506830215454102
H	-2.363132953643799	6.181981086730957	-1.7656406164169312
H	-2.773176670074463	6.784244537353516	-0.25484633445739746
