48

U	-4.5742034912109375	0.276390939950943	0.2539554536342621
O	-3.622950553894043	0.1260465383529663	-1.296042799949646
O	-5.753100395202637	0.2264721691608429	1.492763638496399
U	1.9042606353759766	-3.887199640274048	0.3621640205383301
U	-2.4053053855895996	-3.567173719406128	0.452667236328125
O	-1.580485224723816	-2.9115397930145264	-1.3271507024765015
O	-2.6799371242523193	-4.625605583190918	1.8282527923583984
O	1.4026774168014526	-2.9628992080688477	-1.1733019351959229
O	2.6109042167663574	-4.66229248046875	1.9318277835845947
O	-0.10852964967489243	-3.3428151607513428	1.3344722986221313
O	-0.010336145758628845	-4.706149101257324	0.5939974784851074
O	-4.255124568939209	-2.3432345390319824	0.3617461919784546
O	-3.1812267303466797	-1.6317352056503296	1.206018328666687
U	2.167781352996826	3.658320188522339	0.5185751914978027
U	-2.379335880279541	3.4933786392211914	0.4986972510814667
U	4.128227233886719	0.02619953453540802	0.2882014513015747
O	-1.7116827964782715	2.8972723484039307	-1.2480864524841309
O	3.2069954872131348	-0.00046753347851336	-1.1721705198287964
O	1.5341119766235352	2.8667635917663574	-1.2048957347869873
O	2.516547441482544	4.553168773651123	1.8497531414031982
O	5.3196258544921875	-0.0833132341504097	1.7557549476623535
O	-2.7484652996063232	4.699448585510254	1.8328816890716553
O	-0.21498392522335052	3.347994089126587	1.310171127319336
O	-0.03950430452823639	4.723193168640137	0.4271465837955475
O	-4.310319900512695	2.425590753555298	0.34287622570991516
O	-3.2308349609375	1.519223690032959	1.2297048568725586
O	2.6986262798309326	1.5532324314117432	1.3563735485076904
O	3.8841986656188965	2.296818256378174	0.49920302629470825
O	2.751307725906372	-1.733586072921753	1.2314444780349731
O	3.8687424659729004	-2.3097646236419678	0.4579654335975647
O	-6.589370250701904	0.7584728002548218	-0.9822598695755005
H	-6.5232367515563965	1.1107014417648315	-1.773720622062683
H	-7.254968166351318	1.1172603368759155	-0.3739001750946045
O	-2.543362855911255	-5.937068462371826	-1.021945595741272
H	-2.5910935401916504	-6.695000648498535	-0.2005237340927124
H	-2.200754165649414	-6.01189661026001	-1.7278597354888916
O	3.354854106903076	-5.400505065917969	-0.9766066074371338
H	4.250327110290527	-5.745206356048584	-0.3297276198863983
H	3.8111751079559326	-5.138713359832764	-1.6632381677627563
O	6.360167503356934	-0.655738115310669	-1.0137325525283813
H	6.3131232261657715	-0.8759388327598572	-1.8377950191497803
H	6.962525844573975	-0.8976126909255981	-0.44178307056427
O	3.3181662559509277	5.356862545013428	-0.8981771469116211
H	3.948399305343628	4.907713890075684	-1.668747067451477
H	4.306665420532227	5.584874153137207	-0.19789698719978333
O	-2.9223129749298096	5.749258995056152	-0.9398877620697021
H	-2.410141706466675	6.111140251159668	-1.6822032928466797
H	-2.7688660621643066	6.766427516937256	-0.29792505502700806
