48

U	-4.457742691040039	-0.30649176239967346	0.36419421434402466
O	-3.4428651332855225	-0.00792251992970705	-1.366012454032898
O	-5.389303684234619	-0.005966939032077789	1.888630986213684
U	1.4734615087509155	-4.376596450805664	0.4400162398815155
U	-2.8299901485443115	-3.3707995414733887	0.11776876449584961
O	-1.7549561262130737	-2.7221169471740723	-1.248551368713379
O	-2.8625221252441406	-4.499975204467773	1.6398885250091553
O	1.4874193668365479	-2.947535514831543	-1.2881520986557007
O	2.4877676963806152	-4.548509120941162	1.968382716178894
O	-0.22114887833595276	-3.2599129676818848	1.4393662214279175
O	-0.1905604898929596	-4.634560585021973	0.49592697620391846
O	-4.1206512451171875	-2.247828722000122	0.45713165402412415
O	-3.058063268661499	-1.5996711254119873	1.3432115316390991
U	1.417372703552246	4.174459934234619	0.4345059394836426
U	-2.8720271587371826	3.7864160537719727	0.4575902223587036
U	4.281238555908203	-0.7367263436317444	0.41017013788223267
O	-1.9245907068252563	2.9092273712158203	-1.2699360847473145
O	3.2716212272644043	-0.018310213461518288	-1.3671870231628418
O	1.3265691995620728	2.7837564945220947	-1.2029796838760376
O	2.2856600284576416	4.421380043029785	1.998537302017212
O	5.28365421295166	0.00877248216420412	1.7733865976333618
O	-2.939483404159546	4.547028064727783	1.8606858253479004
O	-0.3296329081058502	3.349783182144165	1.3058342933654785
O	-0.2725324034690857	4.648179531097412	0.5177663564682007
O	-4.281599998474121	2.310596466064453	0.5180945992469788
O	-3.117459535598755	1.628566861152649	1.2909743785858154
O	2.636625051498413	1.6457107067108154	1.3818659782409668
O	3.674208641052246	2.261253833770752	0.5427277088165283
O	2.7799971103668213	-1.7225852012634277	1.2061697244644165
O	3.825045108795166	-2.32261061668396	0.503512442111969
O	-6.491970539093018	0.789211094379425	-1.0269856452941895
H	-6.516966819763184	1.165623664855957	-1.87526535987854
H	-7.299201488494873	1.1782468557357788	-0.3256971836090088
O	-2.620547294616699	-5.847102642059326	-1.1191325187683105
H	-2.6089673042297363	-6.658360958099365	-0.31422150135040283
H	-2.255913257598877	-6.115576267242432	-1.862587809562683
O	3.6802878379821777	-5.230617523193359	-0.9523746967315674
H	4.396817207336426	-5.749683380126953	-0.32134386897087097
H	3.9347000122070312	-5.163641929626465	-1.7693536281585693
O	6.345315933227539	-0.8016139268875122	-1.0985355377197266
H	6.38489294052124	-1.1199203729629517	-1.9848252534866333
H	7.165040969848633	-1.1580699682235718	-0.43089765310287476
O	3.6123769283294678	5.067855358123779	-0.9280620217323303
H	3.9413862228393555	4.890270233154297	-1.7485814094543457
H	4.3385491371154785	5.534964084625244	-0.24139763414859772
O	-2.6644091606140137	5.879688739776611	-0.9918484687805176
H	-2.3294899463653564	6.195738792419434	-1.7670769691467285
H	-2.699448585510254	6.858882427215576	-0.2593599557876587
