48

U	-4.469764232635498	0.39469558000564575	0.31819915771484375
O	-3.391616106033325	0.03952855244278908	-1.3158669471740723
O	-5.5065155029296875	0.03278172016143799	1.7082394361495972
U	1.6808712482452393	-3.8696537017822266	0.4933736324310303
U	-2.9527366161346436	-3.565579891204834	0.1964561641216278
O	-1.7799417972564697	-2.8000755310058594	-1.3082623481750488
O	-2.919557809829712	-4.629387378692627	1.6730666160583496
O	1.4196196794509888	-2.9414477348327637	-1.2380871772766113
O	2.322049856185913	-4.769777297973633	1.866977572441101
O	-0.22400307655334473	-3.2232284545898438	1.4541847705841064
O	-0.2200179100036621	-4.667300701141357	0.4855514168739319
O	-4.102041244506836	-2.357804298400879	0.3579727113246918
O	-3.0205628871917725	-1.5759291648864746	1.2398127317428589
U	2.533031463623047	3.158421516418457	0.6183038949966431
U	-2.266475200653076	3.7806780338287354	0.5272111892700195
U	4.1157379150390625	-0.6173559427261353	0.5358409881591797
O	-1.9197101593017578	2.883124828338623	-1.2196096181869507
O	3.200124502182007	-0.09360440075397491	-1.184896469116211
O	1.3906941413879395	2.8290135860443115	-1.2353626489639282
O	2.367504358291626	4.566766262054443	1.8514928817749023
O	5.166728973388672	-0.17290562391281128	1.9200255870819092
O	-2.9224281311035156	4.550626277923584	1.8820165395736694
O	-0.3235774636268616	3.380732536315918	1.3211485147476196
O	-0.28755462169647217	4.649301052093506	0.5519930720329285
O	-4.235041618347168	2.3599863052368164	0.5407790541648865
O	-2.9836316108703613	1.663527011871338	1.406635046005249
O	2.63961124420166	1.640130877494812	1.3914661407470703
O	3.729400396347046	2.259258270263672	0.654137909412384
O	2.771853446960449	-1.7843663692474365	1.201285481452942
O	3.797839641571045	-2.394815444946289	0.4654466509819031
O	-6.567388534545898	0.8454188108444214	-1.151404857635498
H	-6.608880519866943	1.1295750141143799	-1.9335139989852905
H	-7.291486740112305	1.1698336601257324	-0.38124170899391174
O	-2.6503899097442627	-5.99320125579834	-1.0854767560958862
H	-2.670504093170166	-6.823308944702148	-0.3121039867401123
H	-2.2874536514282227	-6.195181369781494	-1.8329554796218872
O	3.6175835132598877	-5.475264549255371	-0.9844262003898621
H	4.305776119232178	-5.951583385467529	-0.3614567518234253
H	3.8319380283355713	-5.337489604949951	-1.7751119136810303
O	6.232536792755127	-0.6593811511993408	-1.0374116897583008
H	6.200808525085449	-1.0696072578430176	-1.8260198831558228
H	6.989468574523926	-1.1336166858673096	-0.4503519833087921
O	3.652893304824829	5.1853742599487305	-1.051066279411316
H	3.932573080062866	4.889603614807129	-1.7639082670211792
H	4.368851661682129	5.561892509460449	-0.26904812455177307
O	-2.7069106101989746	5.921677589416504	-0.9723820090293884
H	-2.3482370376586914	6.118783950805664	-1.7838044166564941
H	-2.7508041858673096	6.7733612060546875	-0.23114126920700073
