48

U	-4.691522598266602	0.04662714898586273	1.5697932243347168
O	-4.63746452331543	0.6867442727088928	-2.4468414783477783
O	-7.6612868309021	1.8126859664916992	0.06821751594543457
U	2.387638568878174	-4.429722309112549	1.1031787395477295
U	-2.5884287357330322	-4.303055763244629	1.1782610416412354
O	-2.2201573848724365	-3.0645570755004883	-1.4448587894439697
O	-3.4552242755889893	-6.173733234405518	2.866854667663574
O	1.8565707206726074	-3.7295079231262207	-1.1840834617614746
O	3.6907715797424316	-6.7810821533203125	3.280245542526245
O	0.5218672156333923	-4.198365688323975	1.9276219606399536
O	-0.47833743691444397	-5.215874195098877	1.316205382347107
O	-3.215557098388672	-3.5643842220306396	1.6071460247039795
O	-3.7603189945220947	-2.702805280685425	1.5804346799850464
U	1.754355549812317	3.917917490005493	0.640339195728302
U	-1.8687368631362915	3.8568506240844727	0.843313992023468
U	5.228900909423828	1.4903271198272705	1.3089439868927002
O	-2.216167688369751	2.943098545074463	-2.632917881011963
O	4.113269805908203	-0.7421599626541138	-1.8334087133407593
O	1.793548822402954	3.5278873443603516	-1.2748034000396729
O	4.259160041809082	6.073348045349121	1.0233935117721558
O	7.826977729797363	-0.6506015658378601	-0.7046485543251038
O	-3.927757740020752	5.676285743713379	-0.5977728962898254
O	1.1547627449035645	3.962937116622925	1.4985624551773071
O	0.5235379934310913	5.227397918701172	1.3747667074203491
O	-3.9662957191467285	3.2016382217407227	1.0172319412231445
O	-3.728095769882202	2.630794048309326	1.7371853590011597
O	3.622298002243042	1.8495678901672363	1.8139350414276123
O	3.9511804580688477	2.437351942062378	0.8844541907310486
O	2.9307808876037598	-2.547175168991089	2.1441516876220703
O	3.601914167404175	-2.6493890285491943	1.5662477016448975
O	-9.803237915039062	0.1988716423511505	0.7731075882911682
H	-6.900969505310059	0.22987040877342224	-0.7878063917160034
H	-5.606403827667236	-0.05791953206062317	0.8236927390098572
O	-3.2354583740234375	-5.290633201599121	-2.866506576538086
H	-2.80979323387146	-5.334771633148193	0.8978253602981567
H	-3.3616604804992676	-6.0579938888549805	-0.23314955830574036
O	3.5276730060577393	-5.877399921417236	-3.284489393234253
H	2.8372654914855957	-5.586462497711182	2.051828622817993
H	3.43969988822937	-6.139019966125488	-0.4617208242416382
O	8.88985538482666	-2.2498695850372314	0.3800511956214905
H	6.444079399108887	-0.6181274056434631	-1.691861629486084
H	5.854763031005859	-0.6739240288734436	0.34113675355911255
O	5.126358509063721	7.746435642242432	-0.35032039880752563
H	3.219048261642456	5.7714738845825195	-2.361572027206421
H	3.1702849864959717	5.382593154907227	0.19524407386779785
O	-4.356544017791748	6.765305042266846	-3.5634989738464355
H	-2.0454280376434326	6.7747578620910645	-2.7829201221466064
H	-2.308983087539673	5.850193977355957	0.35631656646728516
