48

U	-4.607952117919922	-0.2198602855205536	0.2234971821308136
O	-3.424954891204834	-0.016882579773664474	-1.367903470993042
O	-5.555354595184326	-0.026588693261146545	1.6769847869873047
U	1.9808971881866455	-3.8375468254089355	0.19050785899162292
U	-2.6146535873413086	-3.7337722778320312	0.6952235102653503
O	-1.842880129814148	-2.8692970275878906	-1.212278962135315
O	-2.8924756050109863	-4.577671527862549	1.8686429262161255
O	1.4469496011734009	-2.86160945892334	-1.332558035850525
O	2.5876951217651367	-4.662316799163818	1.681071162223816
O	-0.32340794801712036	-3.33768367767334	1.2762458324432373
O	-0.266437828540802	-4.7174882888793945	0.4419431686401367
O	-4.1498870849609375	-2.438903331756592	0.4949592351913452
O	-3.1048407554626465	-1.7813866138458252	1.2234697341918945
U	2.127695083618164	3.8003780841827393	0.47004544734954834
U	-2.5471551418304443	3.7079567909240723	0.4149894714355469
U	4.23734188079834	-0.29148775339126587	0.5910807847976685
O	-1.876269817352295	2.8044562339782715	-1.2691205739974976
O	3.1119437217712402	-0.02225997857749462	-1.1634328365325928
O	1.4952409267425537	3.0375864505767822	-1.2928029298782349
O	2.4901092052459717	4.735655784606934	1.8118871450424194
O	5.132634162902832	0.11030525714159012	1.9716911315917969
O	-2.77038836479187	4.653371810913086	1.929600715637207
O	-0.10547786951065063	3.394512176513672	1.3325281143188477
O	-0.08476284146308899	4.765897750854492	0.43942970037460327
O	-4.240980625152588	2.4123425483703613	0.4100077152252197
O	-3.119997024536133	1.5801335573196411	1.2954403162002563
O	2.6812806129455566	1.7767112255096436	1.3833494186401367
O	3.7566280364990234	2.416705369949341	0.5871115922927856
O	2.8118808269500732	-1.767228364944458	1.2887812852859497
O	3.890475273132324	-2.276344060897827	0.514110803604126
O	-6.489641189575195	0.6882530450820923	-1.1991181373596191
H	-6.521667957305908	1.2149162292480469	-1.8970186710357666
H	-7.249392509460449	1.2281219959259033	-0.4454132616519928
O	-2.667926788330078	-5.9245452880859375	-0.9117410778999329
H	-2.6693761348724365	-6.770288944244385	-0.1929580718278885
H	-2.256587028503418	-6.042200088500977	-1.7407591342926025
O	3.3811094760894775	-5.365271091461182	-1.1053471565246582
H	4.366003513336182	-5.729630470275879	-0.41124626994132996
H	3.9180679321289062	-5.125471591949463	-1.7757198810577393
O	6.288698196411133	-0.557094395160675	-0.9169720411300659
H	6.276976585388184	-0.8601611852645874	-1.7515608072280884
H	7.0600714683532715	-0.9053775668144226	-0.33899563550949097
O	3.7064754962921143	5.28164005279541	-0.9005872011184692
H	4.049524307250977	5.084598541259766	-1.808691143989563
H	4.465674877166748	5.734157085418701	-0.28438910841941833
O	-2.7075390815734863	5.870351314544678	-0.9683892130851746
H	-2.3689465522766113	6.124671459197998	-1.7073547840118408
H	-2.8311452865600586	6.719020843505859	-0.2118542492389679
