48

U	-4.576636791229248	-0.1174241304397583	0.27315881848335266
O	-3.484149694442749	0.04308158531785011	-1.1125283241271973
O	-5.605072975158691	0.04111996293067932	1.8239024877548218
U	1.779784917831421	-3.865907669067383	0.08021825551986694
U	-2.2600162029266357	-3.283200979232788	0.40378424525260925
O	-1.8701590299606323	-2.730386734008789	-1.242985486984253
O	-2.8662102222442627	-4.592165470123291	1.7607513666152954
O	1.4962050914764404	-2.927452802658081	-1.1831449270248413
O	2.2946882247924805	-4.743851661682129	1.8836923837661743
O	-0.11441411823034286	-3.321432113647461	1.3224689960479736
O	-0.13883863389492035	-4.667599678039551	0.4394534230232239
O	-4.204522132873535	-2.3075106143951416	0.1912858486175537
O	-3.0530736446380615	-1.6949892044067383	1.2244930267333984
U	2.239708423614502	3.59867262840271	0.848511815071106
U	-2.5408365726470947	3.624993085861206	0.3952506184577942
U	4.1853928565979	-0.1571783870458603	0.1841021180152893
O	-1.7246723175048828	2.935971975326538	-1.2595837116241455
O	3.4314961433410645	-0.09158334136009216	-1.3101634979248047
O	1.4579999446868896	2.8019838333129883	-0.9887386560440063
O	2.351330280303955	4.527125835418701	2.0149641036987305
O	5.350813865661621	-0.13122421503067017	1.557384729385376
O	-2.839430809020996	4.762814521789551	1.8754009008407593
O	-0.25914615392684937	3.3550620079040527	1.3408626317977905
O	-0.10155043005943298	4.672091960906982	0.5370782017707825
O	-4.2856764793396	2.2699851989746094	0.4077503979206085
O	-3.1324307918548584	1.4843918085098267	1.4134286642074585
O	2.871311664581299	1.4097567796707153	1.3841341733932495
O	3.9000790119171143	2.2825076580047607	0.534857451915741
O	2.904634952545166	-1.5898113250732422	1.1692434549331665
O	3.7922980785369873	-2.594886302947998	0.429232120513916
O	-6.589885234832764	0.7444701194763184	-0.9146218299865723
H	-6.542531490325928	1.077497959136963	-1.6986174583435059
H	-7.214223384857178	1.088247299194336	-0.3210522532463074
O	-2.758359909057617	-5.840095520019531	-1.0824065208435059
H	-2.652599334716797	-6.634050369262695	-0.2604042887687683
H	-2.2926175594329834	-6.053974151611328	-1.741273045539856
O	3.3227498531341553	-5.377964496612549	-1.0793170928955078
H	4.0909104347229	-5.803376197814941	-0.4709619879722595
H	3.680830955505371	-5.16008186340332	-1.6490103006362915
O	6.389359474182129	-0.7241042852401733	-1.0482194423675537
H	6.33894157409668	-0.9689277410507202	-1.7985445261001587
H	6.946200370788574	-0.9850553274154663	-0.4479556679725647
O	3.3554346561431885	5.215982913970947	-0.8815268278121948
H	3.6247665882110596	4.932522296905518	-1.6156134605407715
H	4.053237438201904	5.629143714904785	-0.22304129600524902
O	-2.9092371463775635	5.859245777130127	-0.989071249961853
H	-2.4141085147857666	6.175686359405518	-1.7036964893341064
H	-2.81777286529541	6.8130950927734375	-0.2754861116409302
