48

U	-4.4281768798828125	-0.03592275083065033	0.3707125186920166
O	-3.3744733333587646	-0.03812190145254135	-1.154250144958496
O	-5.443313121795654	-0.03680485486984253	1.819516897201538
U	1.4416013956069946	-4.14886474609375	0.08548194169998169
U	-2.29133677482605	-3.564526319503784	0.5169700384140015
O	-1.8863404989242554	-2.780043125152588	-1.2274458408355713
O	-2.8156869411468506	-4.587912082672119	1.8919073343276978
O	1.5339616537094116	-3.0111773014068604	-1.4094386100769043
O	2.5780084133148193	-4.788539886474609	1.6207541227340698
O	-0.06121261417865753	-3.3861570358276367	1.2811576128005981
O	-0.04935504496097565	-4.774622440338135	0.31326621770858765
O	-4.159638404846191	-2.3470630645751953	0.4317096471786499
O	-3.0887820720672607	-1.655032992362976	1.2336515188217163
U	2.215301752090454	3.4123120307922363	0.5760629177093506
U	-2.093690872192383	3.6631124019622803	0.7439830303192139
U	4.212497711181641	0.09506696462631226	0.4664686918258667
O	-1.8748035430908203	2.8559770584106445	-1.1362868547439575
O	3.0610594749450684	0.09137410670518875	-1.2310044765472412
O	1.4538342952728271	2.840740203857422	-1.2967305183410645
O	2.568544626235962	4.452622413635254	1.8449187278747559
O	5.135308742523193	-0.052285369485616684	1.867974042892456
O	-2.8704371452331543	4.496593475341797	2.010601758956909
O	-0.3128476142883301	3.3204009532928467	1.3631417751312256
O	-0.2480919510126114	4.656104564666748	0.5144117474555969
O	-4.22121000289917	2.4222123622894287	0.6314473152160645
O	-2.9909753799438477	1.672406792640686	1.4120054244995117
O	2.696542739868164	1.6748865842819214	1.3586690425872803
O	3.8067214488983154	2.1871190071105957	0.6317219734191895
O	2.7282440662384033	-1.8063942193984985	1.2094430923461914
O	3.763579845428467	-2.444871664047241	0.36383968591690063
O	-6.4347991943359375	0.7775771617889404	-1.1500754356384277
H	-6.509825706481934	1.1258878707885742	-1.8785974979400635
H	-7.16316556930542	1.1042057275772095	-0.40975135564804077
O	-2.6805827617645264	-5.961458206176758	-0.9525768756866455
H	-2.72820782661438	-6.78449821472168	-0.26845818758010864
H	-2.3327982425689697	-6.114810466766357	-1.7619988918304443
O	3.7032337188720703	-5.314797878265381	-0.9713207483291626
H	4.35666036605835	-5.823777198791504	-0.38311922550201416
H	3.9501397609710693	-5.242560386657715	-1.7782411575317383
O	6.1058244705200195	-0.5559660196304321	-1.088023066520691
H	6.150998115539551	-0.9742276668548584	-1.7696654796600342
H	6.889653205871582	-0.9707423448562622	-0.5123352408409119
O	3.5953409671783447	5.259564399719238	-1.004618525505066
H	4.013786792755127	4.973700523376465	-1.8023134469985962
H	4.399930477142334	5.634311676025391	-0.3117463290691376
O	-2.6624393463134766	5.945905685424805	-0.8486515283584595
H	-2.318103075027466	6.045252799987793	-1.7339673042297363
H	-2.706522226333618	6.761704921722412	-0.08735820651054382
