48

U	-4.196247100830078	0.08911892771720886	1.4689733982086182
O	-4.147256374359131	1.050775408744812	-2.3373703956604004
O	-6.9237847328186035	2.1990737915039062	0.44553694128990173
U	2.0715420246124268	-4.332369804382324	1.2599600553512573
U	-2.4617481231689453	-4.177981376647949	1.0893059968948364
O	-1.9610307216644287	-3.047149896621704	-1.399152159690857
O	-3.345426321029663	-5.621643543243408	2.7056732177734375
O	2.021371603012085	-3.3762800693511963	-1.3684711456298828
O	3.6979012489318848	-6.156749725341797	2.91428542137146
O	0.6417590379714966	-4.376791000366211	1.7879794836044312
O	-0.0679548904299736	-5.16190767288208	1.1137237548828125
O	-2.7996630668640137	-3.4205923080444336	1.6284679174423218
O	-3.7715744972229004	-2.5262961387634277	1.4758541584014893
U	1.5722782611846924	3.8891818523406982	0.7426279783248901
U	-2.0220091342926025	3.803009510040283	0.8763440251350403
U	4.53726053237915	1.301546335220337	1.298175573348999
O	-2.0233547687530518	2.447349786758423	-2.420950412750244
O	3.892982006072998	-1.0490717887878418	-1.8790141344070435
O	1.9166089296340942	3.388124465942383	-1.3243366479873657
O	3.8619489669799805	5.613787651062012	0.9832916259765625
O	7.070940017700195	-0.8445028066635132	-0.41307052969932556
O	-3.740898609161377	5.220808506011963	-0.06911610066890717
O	1.2410509586334229	3.843919038772583	1.597763180732727
O	0.17024150490760803	4.971229553222656	1.3002405166625977
O	-3.8204076290130615	3.0332531929016113	1.1214227676391602
O	-3.965986490249634	2.2389235496520996	1.6804461479187012
O	3.7127785682678223	1.9871376752853394	1.7889574766159058
O	3.7386412620544434	2.1802799701690674	0.7123396992683411
O	2.7460412979125977	-2.5679986476898193	1.9715819358825684
O	3.3748536109924316	-2.668999195098877	1.1989690065383911
O	-9.110664367675781	0.7037892937660217	0.234767884016037
H	-6.631236553192139	0.31004825234413147	-0.7325273156166077
H	-5.709565162658691	0.050324492156505585	0.8193906545639038
O	-3.4068405628204346	-5.016331672668457	-2.6165614128112793
H	-2.7493133544921875	-5.376098155975342	0.7387723326683044
H	-3.1835923194885254	-5.887753963470459	-0.38802048563957214
O	2.9901561737060547	-5.631767272949219	-2.5657339096069336
H	2.8832058906555176	-5.6754608154296875	1.796374797821045
H	3.1735095977783203	-5.738951206207275	-0.8933200240135193
O	7.805631160736084	-1.3611563444137573	-0.3127584457397461
H	6.134335994720459	-0.838004469871521	-1.6618951559066772
H	5.735254287719727	-0.8565466403961182	0.2909126877784729
O	4.808743476867676	6.66299295425415	-0.8645281791687012
H	3.0138204097747803	5.492393493652344	-2.0745975971221924
H	2.9956276416778564	5.2727274894714355	0.27580422163009644
O	-3.527829170227051	5.990605354309082	-3.3929190635681152
H	-2.248377799987793	6.561722755432129	-2.3545620441436768
H	-2.453829288482666	5.885529518127441	0.5385608673095703
