48

U	-4.1602559089660645	0.4096670150756836	0.6406254172325134
O	-3.4365086555480957	0.037328317761421204	-1.181321382522583
O	-5.4671196937561035	0.10025341808795929	1.960290551185608
U	2.3117496967315674	-3.4992177486419678	0.4744555354118347
U	-2.3075711727142334	-3.592547655105591	0.6885170936584473
O	-1.7798486948013306	-2.845271587371826	-1.157174825668335
O	-2.7345023155212402	-4.57828426361084	1.834811806678772
O	1.5806139707565308	-2.97711443901062	-1.105875849723816
O	2.529662847518921	-4.6490349769592285	1.851078987121582
O	0.012821197509765625	-3.367156982421875	1.3858988285064697
O	-0.0021262317895889282	-4.713233947753906	0.45883840322494507
O	-4.173755645751953	-2.2246615886688232	0.566413938999176
O	-3.086165428161621	-1.6491318941116333	1.2722430229187012
U	2.052272319793701	3.643676280975342	0.5016635060310364
U	-2.821305513381958	3.4461798667907715	0.15429003536701202
U	3.640418529510498	-0.19413542747497559	0.17614391446113586
O	-1.9196091890335083	2.9357407093048096	-1.359262228012085
O	3.031256675720215	0.006156856194138527	-1.2690969705581665
O	1.4915415048599243	2.841089963912964	-1.2434192895889282
O	2.3428707122802734	4.643226623535156	1.8893206119537354
O	5.102283477783203	0.04190065339207649	1.6541590690612793
O	-2.9646687507629395	4.698354244232178	1.6924794912338257
O	-0.4630797803401947	3.389126777648926	1.2347328662872314
O	-0.41570958495140076	4.702625274658203	0.36962395906448364
O	-4.249613285064697	2.5564866065979004	0.44432127475738525
O	-3.045055627822876	1.7507379055023193	1.4157826900482178
O	2.675583600997925	1.7755467891693115	1.387120008468628
O	3.7466065883636475	2.321140766143799	0.5754889249801636
O	2.6872634887695312	-1.8475745916366577	1.2708442211151123
O	3.8159689903259277	-2.3988144397735596	0.4667987823486328
O	-6.4466681480407715	0.7716212868690491	-1.0159542560577393
H	-6.429759502410889	1.236610770225525	-1.8293877840042114
H	-7.234338760375977	1.138053059577942	-0.2922747731208801
O	-2.5446088314056396	-5.86468505859375	-0.9270981550216675
H	-2.6591145992279053	-6.722543716430664	-0.211819127202034
H	-2.3218398094177246	-6.057995319366455	-1.7176496982574463
O	3.6616244316101074	-5.2738566398620605	-0.804226279258728
H	4.226864814758301	-5.7007646560668945	-0.266039103269577
H	3.794654369354248	-5.11269998550415	-1.646911382675171
O	6.19289493560791	-0.5507127046585083	-1.1137558221817017
H	6.090858459472656	-0.8379318714141846	-1.8595373630523682
H	6.817816734313965	-0.8544697761535645	-0.5194827914237976
O	3.487022638320923	5.360814094543457	-0.9880126714706421
H	4.004556655883789	4.9891252517700195	-1.7827070951461792
H	4.415309906005859	5.703054904937744	-0.3160463273525238
O	-2.7373385429382324	5.94525146484375	-0.9130911827087402
H	-2.392331838607788	6.220965385437012	-1.7409541606903076
H	-2.762110710144043	6.847352981567383	-0.29575756192207336
