30

Li	-3.4560444355010986	-2.018238067626953	0.39874380826950073
Li	2.605440616607666	-2.9277777671813965	0.2560618221759796
Li	-2.7856388092041016	2.7712838649749756	-0.2804497480392456
Li	3.4577858448028564	2.145371437072754	-0.436703622341156
Li	0.11328494548797607	1.2973484992980957	-2.015291452407837
Li	-0.16114553809165955	-1.2475597858428955	2.0340664386749268
O	-1.649138331413269	1.5334563255310059	-1.1017955541610718
O	-2.1136956214904785	-1.1549354791641235	1.113961100578308
O	1.8044726848602295	-1.5154664516448975	1.044189214706421
O	2.1473939418792725	1.127924919128418	-1.1433570384979248
O	-4.04078483581543	-0.516146719455719	-0.6875466108322144
O	-3.7933788299560547	1.6042768955230713	0.6845158934593201
O	-2.6686878204345703	-1.0165703296661377	-1.3727333545684814
O	-2.614001512527466	1.7805848121643066	1.2113615274429321
O	2.5524940490722656	-1.8003851175308228	-1.2892649173736572
O	2.8545641899108887	1.0003905296325684	1.3376737833023071
O	3.9888579845428467	0.5327001810073853	0.6702220439910889
O	3.6667308807373047	-1.5575796365737915	-0.7068700790405273
O	0.05004546791315079	0.6080672144889832	1.167705774307251
O	-0.0034674406051635742	-0.629692792892456	-1.206250548362732
O	-3.7622532844543457	-3.4708411693573	-0.9384106397628784
O	3.6363487243652344	3.4897897243499756	0.9490960240364075
U	-1.9781837463378906	0.25113850831985474	0.006558358669281006
U	2.106848955154419	-0.21876035630702972	-0.06254458427429199
H	-3.435528516769409	-2.9885568618774414	-1.1626226902008057
H	-4.396790504455566	-3.8241171836853027	-1.1674549579620361
H	3.492560625076294	2.982908248901367	1.1998238563537598
H	4.405078411102295	3.8488078117370605	1.2082479000091553
H	-0.12329661101102829	-1.362483024597168	-1.5816850662231445
H	0.11464011669158936	1.3531430959701538	1.5571093559265137
