30

Li	-6.738313674926758	-2.440485954284668	-0.18057984113693237
Li	7.335504055023193	-1.84428071975708	0.6213908791542053
Li	-7.268133163452148	1.7368969917297363	-0.326421856880188
Li	6.546389102935791	2.6349544525146484	-0.18786805868148804
Li	0.2924885153770447	0.45355573296546936	-1.399970531463623
Li	-0.1933521032333374	-0.35788941383361816	1.4116497039794922
O	-3.154885768890381	0.7073573470115662	-0.9307159781455994
O	-2.971869468688965	-0.5556276440620422	0.5804839730262756
O	3.2775168418884277	-0.7670083045959473	0.44555333256721497
O	3.0939433574676514	0.7208098769187927	-0.20596012473106384
O	-7.078674793243408	-0.2740170955657959	-0.5053821802139282
O	-7.314241886138916	0.30029523372650146	-0.0662955492734909
O	-3.2501296997070312	-0.3246314823627472	-0.4976089894771576
O	-5.326569080352783	0.32536759972572327	0.033061832189559937
O	4.958883285522461	-0.4183773398399353	-0.16802644729614258
O	2.852858066558838	0.39620035886764526	0.5122110843658447
O	7.190048694610596	0.8084756731987	0.40550974011421204
O	6.8907389640808105	-0.6728811264038086	0.1311827301979065
O	7.111560344696045	27.110820770263672	29.213781356811523
O	-7.088156223297119	-27.007930755615234	-29.17868423461914
O	-7.312601089477539	-3.9634509086608887	-0.99613356590271
O	7.918690204620361	4.055514335632324	1.0449087619781494
U	-2.6761558055877686	0.020903848111629486	-0.10851998627185822
U	3.3490777015686035	0.03780070319771767	0.10811132192611694
H	-5.421069622039795	-2.4733009338378906	-0.5958534479141235
H	-7.829710960388184	-3.7565407752990723	-0.9847975373268127
H	5.970404148101807	2.5036749839782715	0.7462014555931091
H	7.367527008056641	3.4355921745300293	0.9114985466003418
H	-0.1862330585718155	-0.3672173321247101	-0.3816813826560974
H	0.5362988710403442	0.44824644923210144	0.3827769160270691
