30

Li	-3.4983603954315186	-2.002800226211548	0.5103936791419983
Li	2.5318191051483154	-3.217500686645508	0.1608457863330841
Li	-2.618103265762329	3.187044858932495	-0.1654144525527954
Li	3.554532766342163	2.021249294281006	-0.4886905252933502
Li	0.18844807147979736	1.2483649253845215	-1.9997758865356445
Li	-0.23664189875125885	-1.2489206790924072	1.9948492050170898
O	-1.314720869064331	1.540886402130127	-1.0500575304031372
O	-1.818637490272522	-1.005506992340088	1.0456178188323975
O	1.319153070449829	-1.5136187076568604	1.0689237117767334
O	1.902530312538147	1.0723655223846436	-1.0409150123596191
O	-4.2304534912109375	-0.650266706943512	-0.8253780007362366
O	-3.9588046073913574	1.940598964691162	0.8428987860679626
O	-2.700014114379883	-1.111283540725708	-1.4181617498397827
O	-2.156447172164917	1.9162369966506958	1.3679217100143433
O	2.1502323150634766	-1.9386978149414062	-1.3750693798065186
O	2.6655375957489014	1.0899611711502075	1.4359253644943237
O	4.0000319480896	0.6259230375289917	0.7658094167709351
O	3.796271800994873	-1.96413254737854	-0.8621025681495667
O	0.06646183878183365	0.5981245040893555	1.1357700824737549
O	-0.11310724914073944	-0.6115782260894775	-1.2009812593460083
O	-3.404726505279541	-3.3575029373168945	-0.7119778394699097
O	3.4579555988311768	3.3991103172302246	0.7480965256690979
U	-1.7477991580963135	0.9037390947341919	-0.32298779487609863
U	1.2231650352478027	-1.0632706880569458	-0.26481783390045166
H	-3.1401805877685547	-2.726881980895996	-1.2340582609176636
H	-4.118636608123779	-3.754635810852051	-1.1317473649978638
H	3.080411195755005	2.6460132598876953	1.2739341259002686
H	4.191057205200195	3.8155364990234375	1.2031313180923462
H	-0.1627955436706543	-1.3699672222137451	-1.605494737625122
H	0.184534952044487	1.3643498420715332	1.5759849548339844
