30

Li	-3.454078435897827	-2.027843475341797	0.3787098228931427
Li	2.5095512866973877	-3.0461204051971436	0.2855045795440674
Li	-2.4899027347564697	3.018172264099121	-0.3228275179862976
Li	3.45017671585083	2.006683111190796	-0.386412113904953
Li	0.4174511432647705	1.3177056312561035	-2.0756354331970215
Li	-0.263014554977417	-1.261986494064331	2.0915987491607666
O	-1.307753324508667	1.7052823305130005	-1.2229928970336914
O	-2.2321457862854004	-1.000712513923645	1.0776348114013672
O	1.371462345123291	-1.7866380214691162	1.264194130897522
O	2.1636245250701904	1.0953539609909058	-1.180415391921997
O	-4.036136627197266	-0.42637014389038086	-0.7253768444061279
O	-3.7130887508392334	1.7183103561401367	0.6768357753753662
O	-2.751774311065674	-1.016798973083496	-1.4480745792388916
O	-2.5486814975738525	1.894707202911377	1.2524809837341309
O	2.392561435699463	-1.921656608581543	-1.3261321783065796
O	2.7946314811706543	1.0001240968704224	1.435463786125183
O	4.010932922363281	0.3899554908275604	0.6967801451683044
O	3.6701018810272217	-1.6467759609222412	-0.6508760452270508
O	0.09768591076135635	0.6050816774368286	1.1605199575424194
O	-0.12486463785171509	-0.6231908798217773	-1.2016959190368652
O	-3.703368902206421	-3.537433624267578	-0.990533709526062
O	3.5974297523498535	3.5397658348083496	0.9796881675720215
U	-1.973933458328247	0.3530683219432831	-0.0761992335319519
U	2.076934576034546	-0.39294755458831787	0.05823560059070587
H	-3.438737630844116	-2.965097427368164	-1.094879150390625
H	-4.3861541748046875	-3.8387818336486816	-1.1666474342346191
H	3.431696891784668	2.9867706298828125	1.1377943754196167
H	4.421419143676758	3.8083693981170654	1.1961780786514282
H	-0.2531804144382477	-1.3476510047912598	-1.59246027469635
H	0.2158437818288803	1.3719419240951538	1.5666648149490356
