30

Li	-3.5128157138824463	-2.0715737342834473	0.435139924287796
Li	2.616403818130493	-2.8987598419189453	0.25510287284851074
Li	-2.6404290199279785	3.0933806896209717	-0.2843829393386841
Li	3.468928337097168	2.0347723960876465	-0.4098092317581177
Li	0.20289379358291626	1.3147616386413574	-2.0498745441436768
Li	-0.32191652059555054	-1.2585980892181396	2.0730278491973877
O	-1.5981751680374146	1.6697955131530762	-1.1502007246017456
O	-2.1974616050720215	-1.048109531402588	1.1446194648742676
O	1.5696580410003662	-1.5967928171157837	1.0714906454086304
O	2.131378412246704	0.9962671399116516	-1.1082388162612915
O	-4.113002777099609	-0.4659588932991028	-0.7184383869171143
O	-3.7740697860717773	1.8076730966567993	0.7735808491706848
O	-2.739319324493408	-1.0526169538497925	-1.451754093170166
O	-2.450063467025757	1.9220014810562134	1.320957899093628
O	2.4237382411956787	-1.9328725337982178	-1.347895860671997
O	2.76115083694458	1.0251338481903076	1.415528416633606
O	4.002405166625977	0.4439889192581177	0.6723908185958862
O	3.7470057010650635	-1.665448546409607	-0.7143832445144653
O	0.11089891195297241	0.630425214767456	1.202314019203186
O	-0.08870965242385864	-0.6369225382804871	-1.2281627655029297
O	-3.645510196685791	-3.5954394340515137	-1.0129579305648804
O	3.7212319374084473	3.5467591285705566	0.9897825717926025
U	-2.113546371459961	0.37615135312080383	-0.021671175956726074
U	2.029287576675415	-0.2972680926322937	-0.004103269428014755
H	-3.3528788089752197	-3.053093194961548	-1.1091065406799316
H	-4.3654279708862305	-3.949911594390869	-1.1958422660827637
H	3.4041121006011963	3.0195114612579346	1.1542491912841797
H	4.371264934539795	3.8196165561676025	1.1900807619094849
H	-0.10787072777748108	-1.3627195358276367	-1.5876483917236328
H	0.24118639528751373	1.3712310791015625	1.5745656490325928
