30

Li	-5.468912601470947	-2.264946460723877	-0.17330648005008698
Li	5.697905540466309	-1.889332890510559	0.5781973600387573
Li	-5.454931735992432	1.8311079740524292	-0.29761555790901184
Li	5.246281147003174	2.4076485633850098	-0.2049648016691208
Li	0.3275577425956726	0.570708155632019	-1.8800067901611328
Li	-0.2764579653739929	-0.5125151872634888	1.8734946250915527
O	-3.0040347576141357	1.5003389120101929	-2.048924446105957
O	-2.7851665019989014	-1.550569772720337	1.60368812084198
O	2.94277286529541	-1.6627260446548462	0.8677057027816772
O	3.545781135559082	1.8478460311889648	-0.6098873019218445
O	-6.540931701660156	-0.3160438537597656	-0.5120341777801514
O	-6.751760482788086	0.48433902859687805	0.10473297536373138
O	-3.9992947578430176	-0.6635233163833618	-0.8835803270339966
O	-4.901575088500977	0.7229433059692383	0.3560760021209717
O	4.685573577880859	-0.9282662272453308	-0.5647419095039368
O	3.721558094024658	0.747376561164856	0.9397515654563904
O	6.238614082336426	0.9948881268501282	0.37532323598861694
O	5.898748397827148	-0.9773460626602173	0.013576768338680267
O	1.4999144077301025	5.410392761230469	5.814758777618408
O	-1.3410123586654663	-5.36400032043457	-5.812588691711426
O	-6.243654251098633	-3.5438807010650635	-0.834199070930481
O	6.515285491943359	3.5065205097198486	0.9257724285125732
U	-2.971076011657715	0.008509878069162369	-0.13097766041755676
U	3.3805413246154785	0.05246373638510704	0.10815167427062988
H	-5.262981414794922	-2.688427448272705	-0.603309690952301
H	-7.619146347045898	-4.013717174530029	-0.9868137836456299
H	6.329522132873535	2.88334059715271	0.8675426840782166
H	7.553191661834717	3.737457275390625	1.0122084617614746
H	-0.16229915618896484	-0.653436005115509	-0.645118236541748
H	0.4579686224460602	0.7219155430793762	0.6346214413642883
