30

Li	-3.6614434719085693	-2.062652826309204	0.5144872069358826
Li	2.5876379013061523	-3.2283170223236084	0.16757696866989136
Li	-2.669651508331299	3.15432071685791	-0.20629654824733734
Li	3.708824872970581	2.137751579284668	-0.5519860982894897
Li	0.168906569480896	1.2143162488937378	-1.956646203994751
Li	-0.22724220156669617	-1.2319096326828003	1.9567911624908447
O	-1.372964859008789	1.4147924184799194	-1.0623092651367188
O	-1.8670622110366821	-1.029258370399475	1.0232746601104736
O	1.399544358253479	-1.4599227905273438	1.00187349319458
O	1.9598466157913208	1.0180528163909912	-1.081089973449707
O	-4.428500175476074	-0.6586326956748962	-0.8209494352340698
O	-3.8300747871398926	1.849385380744934	0.8218123316764832
O	-2.7666492462158203	-1.0459518432617188	-1.3801240921020508
O	-2.2389535903930664	1.879298210144043	1.3388323783874512
O	2.161550283432007	-1.9533408880233765	-1.3931668996810913
O	2.6800012588500977	1.0335667133331299	1.402204155921936
O	4.003386974334717	0.653799831867218	0.8044669032096863
O	3.6399831771850586	-1.8553876876831055	-0.8384067416191101
O	0.09030704200267792	0.6352653503417969	1.2197128534317017
O	-0.09198468923568726	-0.6224273443222046	-1.1972401142120361
O	-3.569723606109619	-3.520512580871582	-0.735247790813446
O	3.5538687705993652	3.4944424629211426	0.753422200679779
U	-2.03174090385437	-0.006264820694923401	0.37393081188201904
U	2.0498905181884766	0.1756407767534256	0.007543802261352539
H	-3.1619765758514404	-2.747035264968872	-1.3014049530029297
H	-4.281713962554932	-3.910059928894043	-1.2053000926971436
H	3.236915349960327	2.732907772064209	1.267711877822876
H	4.269542694091797	3.8356282711029053	1.1923083066940308
H	-0.15715935826301575	-1.3700335025787354	-1.5896514654159546
H	0.20692172646522522	1.3677022457122803	1.5830150842666626
