24

Li	-3.081254243850708	0.12172359228134155	2.6219489574432373
Li	3.059650421142578	0.4449714720249176	2.6531553268432617
Li	-2.928126811981201	-0.4533042907714844	-2.7482309341430664
Li	3.118882656097412	-0.12343072891235352	-2.6025640964508057
Li	0.18677233159542084	-1.8442391157150269	-1.0571722984313965
Li	-0.20698463916778564	1.8417012691497803	1.0589189529418945
O	-1.8193919658660889	-1.1874017715454102	-1.205486536026001
O	-1.9549272060394287	1.0389957427978516	1.2794967889785767
O	1.9021161794662476	1.2726014852523804	1.3189160823822021
O	1.8607159852981567	-1.1118243932724	-1.3369253873825073
O	-3.826406955718994	-0.8356226682662964	0.9907820820808411
O	-3.87015438079834	0.41262269020080566	-1.1122636795043945
O	-2.5797765254974365	-1.3352826833724976	1.4742701053619385
O	-2.642989158630371	1.0786256790161133	-1.5769083499908447
O	2.647145986557007	-1.1268582344055176	1.6683558225631714
O	2.6349246501922607	1.375478982925415	-1.5044021606445312
O	3.799778938293457	0.8685245513916016	-1.0901230573654175
O	3.871643543243408	-0.493809312582016	1.2176522016525269
O	-0.15616929531097412	1.2635947465896606	-0.7369530200958252
O	-0.009759820997714996	-1.2758466005325317	0.725504994392395
U	-2.05096697807312	-0.09618701785802841	-0.035476744174957275
U	2.0414533615112305	0.027988016605377197	0.0036851167678833008
H	-0.024894647300243378	-1.530144214630127	1.4321351051330566
H	-0.08565860241651535	1.5547343492507935	-1.452856421470642
