24

Li	-10.3751220703125	-0.04714062064886093	11.481451988220215
Li	10.171070098876953	1.2826849222183228	8.538956642150879
Li	-8.253392219543457	-1.4947010278701782	-10.347872734069824
Li	8.309837341308594	0.3261922001838684	-9.386338233947754
Li	0.4383505582809448	-1.727545976638794	-0.5160619020462036
Li	-0.05095967650413513	1.7805192470550537	0.3937775194644928
O	-3.442147731781006	-0.4913719892501831	-0.20017912983894348
O	-3.316370964050293	0.011613786220550537	0.2308157980442047
O	2.9958300590515137	0.7259995341300964	0.32031822204589844
O	2.908090591430664	-0.1084953248500824	-0.5915356874465942
O	-8.261281967163086	-1.1863653659820557	0.7419396042823792
O	-8.48564624786377	-0.23129381239414215	-0.3318275213241577
O	-7.052242279052734	-1.0766832828521729	0.5663618445396423
O	-7.298677444458008	-0.2043187916278839	-0.16735610365867615
O	6.3024210929870605	0.3106868863105774	0.35604584217071533
O	6.250566482543945	0.8401603102684021	-0.5690971612930298
O	9.646688461303711	0.873407781124115	-1.0938653945922852
O	9.726465225219727	0.819998025894165	0.5449868440628052
O	-23.89389419555664	63.464569091796875	-44.634674072265625
O	23.802932739257812	-63.257362365722656	44.44861602783203
U	-4.092051982879639	-0.3406064808368683	0.07251325249671936
U	3.8120670318603516	0.3459978401660919	-0.12872976064682007
H	0.43728357553482056	-1.5146689414978027	2.0157179832458496
H	-0.4610610604286194	1.56535804271698	-2.080958604812622
