24

Li	-8.282411575317383	-0.09081166982650757	8.468643188476562
Li	7.961028099060059	0.9879112243652344	6.329391956329346
Li	-7.259844779968262	-1.2180877923965454	-7.764294147491455
Li	6.599052429199219	0.2886405289173126	-6.772531986236572
Li	0.1532018929719925	-1.833017110824585	-0.4878421425819397
Li	-0.27833354473114014	1.8125152587890625	0.45414867997169495
O	-2.769235372543335	-0.5377370119094849	-0.2814587950706482
O	-2.6080586910247803	0.14752954244613647	0.3066299855709076
O	2.968557357788086	0.8666120171546936	0.5454168319702148
O	2.8410866260528564	-0.3445066511631012	-0.7770344018936157
O	-7.0070648193359375	-1.0582689046859741	0.7156935334205627
O	-7.258409023284912	-0.11588571965694427	-0.34666189551353455
O	-5.764949321746826	-1.0964853763580322	0.6038235425949097
O	-5.986158847808838	0.002616666257381439	-0.3093511462211609
O	5.276477813720703	0.17838945984840393	0.449535608291626
O	5.150656700134277	0.7961421608924866	-0.639079749584198
O	7.860104560852051	0.7138102650642395	-1.072359323501587
O	7.944057464599609	0.6590554118156433	0.6120839715003967
O	-10.299285888671875	27.125091552734375	-19.080244064331055
O	10.121655464172363	-27.104406356811523	19.042556762695312
U	-3.6140594482421875	-0.2968481779098511	0.07561379671096802
U	3.250708818435669	0.293210506439209	-0.11044271290302277
H	0.3696558475494385	-1.3465074300765991	1.7890918254852295
H	-0.4361850619316101	1.374711513519287	-1.831749439239502
