24

Li	-3.053743600845337	0.08384855091571808	2.62343692779541
Li	2.9351978302001953	0.4960367679595947	2.816824436187744
Li	-3.0484368801116943	-0.48068398237228394	-2.5805482864379883
Li	3.0317015647888184	-0.10796666145324707	-2.786010503768921
Li	0.0762501060962677	-1.8258737325668335	-1.0534613132476807
Li	0.023607298731803894	1.8841098546981812	1.0629438161849976
O	-1.7272043228149414	-1.319082260131836	-1.368263840675354
O	-1.8283300399780273	1.1810362339019775	1.4119991064071655
O	1.701892614364624	1.3020203113555908	1.3398958444595337
O	1.9433224201202393	-1.107412576675415	-1.3531033992767334
O	-3.709407329559326	-0.9066429138183594	1.121429681777954
O	-3.822885036468506	0.4311256408691406	-1.1385574340820312
O	-2.5557656288146973	-1.442357063293457	1.584104061126709
O	-2.717872142791748	1.0821748971939087	-1.6151740550994873
O	2.703986883163452	-1.1245871782302856	1.6298385858535767
O	2.5359010696411133	1.4313490390777588	-1.6160320043563843
O	3.7937674522399902	0.9639694690704346	-1.1928939819335938
O	3.8726251125335693	-0.44967371225357056	1.1989260911941528
O	-0.04035530984401703	1.1900359392166138	-0.6762012839317322
O	0.07128241658210754	-1.194609522819519	0.6960574388504028
U	-2.059727191925049	-0.10246303677558899	0.03198826313018799
U	2.016000747680664	0.13091251254081726	-0.008788064122200012
H	0.11017569154500961	-1.5455678701400757	1.4443559646606445
H	-0.12227122485637665	1.5359174013137817	-1.4482946395874023
