25

O	0.16848759353160858	-3.2084577083587646	0.8280787467956543
O	0.19784654676914215	3.949249029159546	3.6401143074035645
O	1.130649209022522	-3.3497352600097656	4.4183807373046875
O	4.897526741027832	-0.6424303650856018	2.9740350246429443
U	-1.080420732498169	2.9806599617004395	0.38734763860702515
U	-1.2107828855514526	-2.5271146297454834	-1.1494895219802856
U	-2.706530809402466	-0.06980796158313751	-0.7638767957687378
O	-1.9263920783996582	-0.07243014872074127	-3.190199613571167
O	-0.32483458518981934	1.7923643589019775	-3.007189989089966
O	-0.49725577235221863	-1.442397117614746	-3.4761674404144287
O	-4.0332489013671875	-10.982954025268555	0.45170900225639343
O	-4.114153861999512	11.141850471496582	1.9705402851104736
O	-11.574472427368164	-0.17387908697128296	3.7720353603363037
O	-3.342155694961548	-2.278984308242798	5.376856803894043
O	1.1061224937438965	2.492225170135498	-1.839410662651062
O	-2.395550012588501	-1.6040968894958496	0.4307388663291931
O	4.017241477966309	0.22739426791667938	-0.2738575339317322
O	-3.426257610321045	2.524369478225708	5.31971549987793
O	-2.997732639312744	1.463370442390442	1.9432214498519897
U	2.2042438983917236	1.4219629764556885	-1.2889639139175415
U	2.304117202758789	-1.5631120204925537	-2.126760959625244
O	9.827858924865723	-7.046240329742432	-1.5461969375610352
O	1.8056137561798096	-0.8674530982971191	-3.611379384994507
O	9.604183197021484	6.902379989624023	-1.2275488376617432
O	1.8476532697677612	1.0235471725463867	-3.746349573135376
