25

O	0.7777658700942993	-2.393717050552368	0.6628215312957764
O	0.7777658700942993	2.393717050552368	0.6628215312957764
O	1.1929519176483154	-3.6715281009674072	0.10275158286094666
O	2.5169029235839844	2.8610228852699038e-08	0.6628215312957764
U	-0.24977892637252808	3.7054669857025146	-0.3170092701911926
U	-0.9505247473716736	-2.933199167251587	0.4393249452114105
U	-3.1085031032562256	-0.7656649947166443	0.1461617648601532
O	-2.9049019813537598	2.8610228852699038e-08	-1.8878175020217896
O	-0.8976641297340393	2.762726068496704	-1.8878175020217896
O	-0.8976641297340393	-2.762726068496704	-1.8878175020217896
O	-1.4053881168365479	-4.3253397941589355	1.3478285074234009
O	-1.4053881168365479	4.3253397941589355	1.3478285074234009
O	-4.54793119430542	2.8610228852699038e-08	1.3478285074234009
O	-3.123188018798828	-2.2691290378570557	0.10275158286094666
O	1.1929519176483154	3.6715281009674072	0.10275158286094666
O	-2.036216974258423	-1.4793989658355713	0.6628215312957764
O	3.8604729175567627	2.8610228852699038e-08	0.10275158286094666
O	-3.123188018798828	2.2691290378570557	0.10275158286094666
O	-2.036216974258423	1.4793989658355713	0.6628215312957764
U	3.7685890197753906	1.6750460863113403	0.2927609086036682
U	2.646754264831543	-1.3672188520431519	0.18964767456054688
O	3.679353952407837	-2.6732070446014404	1.3478285074234009
O	2.3501150608062744	-1.7074589729309082	-1.8878175020217896
O	3.679353952407837	2.6732070446014404	1.3478285074234009
O	2.3501150608062744	1.7074589729309082	-1.8878175020217896
