25

O	0.7169755697250366	-2.4689412117004395	0.5716654658317566
O	0.7214528322219849	2.429384469985962	0.7487306594848633
O	1.2704508304595947	-3.688347578048706	0.12340527772903442
O	2.615729808807373	-0.12914122641086578	0.6150442361831665
U	-1.2164217233657837	3.420377731323242	-0.24817681312561035
U	-1.2029776573181152	-3.384915590286255	-0.10288676619529724
U	-3.1945252418518066	-0.19268307089805603	-0.017074376344680786
O	-2.7179031372070312	-0.006594242062419653	-1.7835254669189453
O	-0.9749650359153748	2.5606307983398438	-1.8594838380813599
O	-0.935565173625946	-2.798490047454834	-1.816037893295288
O	-1.5450042486190796	-4.3640618324279785	1.5884240865707397
O	-1.3885408639907837	4.303548336029053	1.2470343112945557
O	-4.508698463439941	0.04408958554267883	1.1896418333053589
O	-3.1696784496307373	-2.24021315574646	0.2809438705444336
O	1.1572837829589844	3.722055673599243	0.009669102728366852
O	-1.9169654846191406	-1.5642131567001343	0.7452234625816345
O	3.8394274711608887	0.060814641416072845	-0.14561708271503448
O	-3.1036624908447266	2.1933131217956543	0.05148955434560776
O	-2.0270817279815674	1.5363465547561646	0.7702444195747375
U	2.5719566345214844	2.178628921508789	-0.1184125542640686
U	3.0250468254089355	-2.058109998703003	-0.26580870151519775
O	3.7042105197906494	-2.658325433731079	1.324043869972229
O	2.146908760070801	-1.816565752029419	-1.8555082082748413
O	3.644540548324585	2.7730917930603027	1.560036540031433
O	2.3426947593688965	1.6077136993408203	-2.015101909637451
