25

O	0.7777658700942993	-2.393717050552368	0.6628215312957764
O	0.7777658700942993	2.393717050552368	0.6628215312957764
O	1.1929519176483154	-3.6715281009674072	0.10275158286094666
O	2.5169029235839844	2.8610228852699038e-08	0.6628215312957764
U	-0.32753342390060425	4.064451694488525	-0.8708000779151917
U	-0.4753792881965637	-3.6435539722442627	-0.7322137355804443
U	-3.237011194229126	-0.3639626204967499	-1.015851378440857
O	-2.9049019813537598	2.8610228852699038e-08	-1.8878175020217896
O	-0.8976641297340393	2.762726068496704	-1.8878175020217896
O	-0.8976641297340393	-2.762726068496704	-1.8878175020217896
O	-1.4053881168365479	-4.3253397941589355	1.3478285074234009
O	-1.4053881168365479	4.3253397941589355	1.3478285074234009
O	-4.54793119430542	2.8610228852699038e-08	1.3478285074234009
O	-3.123188018798828	-2.2691290378570557	0.10275158286094666
O	1.1929519176483154	3.6715281009674072	0.10275158286094666
O	-2.036216974258423	-1.4793989658355713	0.6628215312957764
O	3.8604729175567627	2.8610228852699038e-08	0.10275158286094666
O	-3.123188018798828	2.2691290378570557	0.10275158286094666
O	-2.036216974258423	1.4793989658355713	0.6628215312957764
U	3.5784692764282227	2.866842269897461	-0.08207105100154877
U	3.2431912422180176	-1.6187667846679688	-0.30434533953666687
O	3.679353952407837	-2.6732070446014404	1.3478285074234009
O	2.3501150608062744	-1.7074589729309082	-1.8878175020217896
O	3.679353952407837	2.6732070446014404	1.3478285074234009
O	2.3501150608062744	1.7074589729309082	-1.8878175020217896
