25

O	0.005788236856460571	-3.279998779296875	0.9733666181564331
O	0.054576337337493896	4.059488773345947	3.869976043701172
O	1.1726511716842651	-3.4074454307556152	4.599177360534668
O	5.137444019317627	-0.6964283585548401	3.404437303543091
U	-1.052740216255188	2.849490165710449	0.3721579909324646
U	-1.1716721057891846	-2.4063456058502197	-1.088602066040039
U	-2.631870746612549	-0.0539943128824234	-0.7002992033958435
O	-1.866512417793274	-0.04880516231060028	-3.071122169494629
O	-0.23918141424655914	1.757911205291748	-2.9418747425079346
O	-0.4331398010253906	-1.3838979005813599	-3.4258816242218018
O	-4.30723237991333	-11.821516036987305	0.4891887307167053
O	-4.381706237792969	11.971298217773438	2.1019093990325928
O	-12.431395530700684	-0.18943649530410767	4.097136974334717
O	-3.4822864532470703	-2.3316729068756104	5.7617998123168945
O	1.111872911453247	2.4415953159332275	-2.4770400524139404
O	-2.5004515647888184	-1.5986945629119873	0.415349543094635
O	4.074508190155029	0.24901330471038818	-0.3724555969238281
O	-3.5677242279052734	2.6226773262023926	5.697115421295166
O	-2.986973762512207	1.427538275718689	1.7735075950622559
U	2.1397085189819336	1.3716185092926025	-1.230023741722107
U	2.2543914318084717	-1.4966373443603516	-2.0129754543304443
O	10.554361343383789	-7.543008804321289	-1.737998127937317
O	1.8276114463806152	-0.8326793909072876	-3.580949306488037
O	10.297189712524414	7.405020713806152	-1.3795816898345947
O	1.9498586654663086	1.0088393688201904	-3.762047529220581
