25

O	0.9612879753112793	-2.3147759437561035	0.8197650909423828
O	0.6724518537521362	2.444514036178589	0.5843312740325928
O	1.284765362739563	-3.5930840969085693	0.14177444577217102
O	2.5391085147857666	0.17362067103385925	0.7036898732185364
U	-1.2087249755859375	3.1531307697296143	-0.31187885999679565
U	-0.46613970398902893	-3.6152408123016357	-0.17982327938079834
U	-3.620633125305176	0.18528681993484497	-0.22324709594249725
O	-2.763357162475586	-0.026094140484929085	-1.9123908281326294
O	-1.0489697456359863	2.5718259811401367	-1.9649548530578613
O	-0.5202653408050537	-2.7812368869781494	-1.6763161420822144
O	-1.1456997394561768	-4.343801975250244	1.571831226348877
O	-1.3773330450057983	4.488364219665527	1.0467536449432373
O	-4.599843978881836	-0.0019633483607321978	1.7193385362625122
O	-3.1181459426879883	-2.2453126907348633	0.02615545690059662
O	1.1657121181488037	3.6284332275390625	-0.2541820704936981
O	-2.0819311141967773	-1.4338864088058472	0.7242311835289001
O	3.8087944984436035	0.11770866811275482	-0.16076847910881042
O	-3.2084786891937256	2.1835927963256836	0.1913968026638031
O	-2.0462751388549805	1.4545493125915527	0.7543649673461914
U	2.765613079071045	2.23274564743042	-0.11062843352556229
U	3.2205591201782227	-1.6522306203842163	-0.38799095153808594
O	3.9083805084228516	-2.5586609840393066	1.060906171798706
O	2.1537675857543945	-1.6337286233901978	-1.920097827911377
O	3.6753740310668945	2.7255473136901855	1.1933645009994507
O	2.1078343391418457	1.5919393301010132	-1.9260494709014893
