25

O	0.7777658700942993	-2.393717050552368	0.6628215312957764
O	0.7777658700942993	2.393717050552368	0.6628215312957764
O	1.1929519176483154	-3.6715281009674072	0.10275158286094666
O	2.5169029235839844	2.8610228852699038e-08	0.6628215312957764
U	-0.9730899930000305	2.6310317516326904	-0.21976131200790405
U	-0.31814515590667725	-2.553380012512207	-0.5107861757278442
U	-4.419229030609131	-0.9092900156974792	0.5091259479522705
O	-2.9049019813537598	2.8610228852699038e-08	-1.8878175020217896
O	-0.8976641297340393	2.762726068496704	-1.8878175020217896
O	-0.8976641297340393	-2.762726068496704	-1.8878175020217896
O	-1.4053881168365479	-4.3253397941589355	1.3478285074234009
O	-1.4053881168365479	4.3253397941589355	1.3478285074234009
O	-4.54793119430542	2.8610228852699038e-08	1.3478285074234009
O	-3.123188018798828	-2.2691290378570557	0.10275158286094666
O	1.1929519176483154	3.6715281009674072	0.10275158286094666
O	-2.036216974258423	-1.4793989658355713	0.6628215312957764
O	3.8604729175567627	2.8610228852699038e-08	0.10275158286094666
O	-3.123188018798828	2.2691290378570557	0.10275158286094666
O	-2.036216974258423	1.4793989658355713	0.6628215312957764
U	3.7401063442230225	1.7064247131347656	-0.6745960116386414
U	3.39884090423584	-2.0896613597869873	0.5424091815948486
O	3.679353952407837	-2.6732070446014404	1.3478285074234009
O	2.3501150608062744	-1.7074589729309082	-1.8878175020217896
O	3.679353952407837	2.6732070446014404	1.3478285074234009
O	2.3501150608062744	1.7074589729309082	-1.8878175020217896
