25

O	0.29035627841949463	-3.1422572135925293	0.7178420424461365
O	0.3106496036052704	3.8229968547821045	3.4172732830047607
O	1.0915590524673462	-3.317042589187622	4.306343078613281
O	4.67370080947876	-0.587551474571228	2.579608917236328
U	-1.1242579221725464	3.0986719131469727	0.4326821565628052
U	-1.2850111722946167	-2.6719040870666504	-1.151601791381836
U	-2.8218648433685303	-0.10545007884502411	-0.7795648574829102
O	-1.996997356414795	-0.09472306072711945	-3.3052799701690674
O	-0.3853636384010315	1.8531843423843384	-3.067593812942505
O	-0.5489765405654907	-1.4819642305374146	-3.554002046585083
O	-3.7713851928710938	-10.199077606201172	0.4262235164642334
O	-3.8606138229370117	10.380287170410156	1.8294333219528198
O	-10.771446228027344	-0.15178287029266357	3.478102684020996
O	-3.234095335006714	-2.2405812740325928	4.996214866638184
O	1.1266813278198242	2.5528147220611572	-1.199278473854065
O	-2.3154284954071045	-1.5925565958023071	0.3953165113925934
O	3.908738851547241	0.2058318704366684	-0.3526645302772522
O	-3.3184828758239746	2.419977903366089	4.955040454864502
O	-2.9930877685546875	1.4809620380401611	2.083678960800171
U	2.277097225189209	1.4547431468963623	-1.359435796737671
U	2.3618061542510986	-1.6482594013214111	-2.2210919857025146
O	9.152952194213867	-6.580549716949463	-1.3881937265396118
O	1.8107941150665283	-0.8931290507316589	-3.667795181274414
O	8.964289665222168	6.4475812911987305	-1.094366431236267
O	1.814520001411438	1.0693488121032715	-3.7401936054229736
