25

O	0.9925028681755066	-2.3278145790100098	0.7647231817245483
O	0.848027765750885	2.418860912322998	0.6518933773040771
O	1.3857626914978027	-3.5640616416931152	-0.10559940338134766
O	2.5584967136383057	0.0246614720672369	0.6143258213996887
U	-1.1014091968536377	3.346313953399658	-0.23016276955604553
U	-1.5815731287002563	-3.2977747917175293	-0.12821292877197266
U	-2.970057249069214	0.2992686927318573	-0.1703115999698639
O	-2.6645455360412598	0.07289467751979828	-1.8887243270874023
O	-1.1145377159118652	2.588839530944824	-1.8790011405944824
O	-0.8851728439331055	-2.7471024990081787	-1.7215828895568848
O	-1.384761929512024	-4.370084762573242	1.595941424369812
O	-1.4129612445831299	4.381356716156006	1.356533169746399
O	-4.604002952575684	0.12136000394821167	1.4400193691253662
O	-3.015455722808838	-2.290806770324707	0.15687724947929382
O	1.210916519165039	3.630887031555176	-0.18492767214775085
O	-2.0196144580841064	-1.4881770610809326	0.8174107074737549
O	3.8141744136810303	0.07021895051002502	-0.2521909177303314
O	-3.0757956504821777	2.2285900115966797	-0.07530933618545532
O	-2.006117820739746	1.4874179363250732	0.7826946973800659
U	2.5554914474487305	2.195295572280884	-0.30448436737060547
U	2.79742693901062	-2.225811243057251	-0.13315999507904053
O	3.7813827991485596	-2.644916534423828	1.371170163154602
O	2.1009931564331055	-1.7031971216201782	-1.95784330368042
O	3.7256131172180176	2.647265911102295	1.1869959831237793
O	2.1642260551452637	1.5465505123138428	-2.008655071258545
