25

O	0.6562086343765259	-2.8117337226867676	0.6867324113845825
O	0.6327450275421143	3.409902334213257	2.872999668121338
O	0.9951320290565491	-3.1524932384490967	3.4244093894958496
O	3.849390745162964	-0.4182444214820862	1.466849684715271
U	-1.244844913482666	3.8208723068237305	0.6951128244400024
U	-1.470551609992981	-3.360039710998535	-1.3062021732330322
U	-3.2896413803100586	-0.16563765704631805	-0.9337801933288574
O	-2.342869758605957	-0.21023891866207123	-3.4913182258605957
O	-0.6607760787010193	2.109344720840454	-3.155139923095703
O	-0.7632956504821777	-1.7569960355758667	-3.73014497756958
O	-2.775801420211792	-7.084175109863281	0.2885515093803406
O	-2.875889778137207	7.265308856964111	1.2499946355819702
O	-7.608415603637695	-0.10548850893974304	2.2517428398132324
O	-2.670816659927368	-2.0476036071777344	3.139023780822754
O	1.332492470741272	2.9533090591430664	2.2835898399353027
O	-2.5264925956726074	-1.8663913011550903	2.1142966747283936
O	3.2181906700134277	0.06633114814758301	-1.3371169567108154
O	-2.7526252269744873	1.9506499767303467	3.1179745197296143
O	-2.629915237426758	1.4624557495117188	2.679563522338867
U	2.791227340698242	1.7121626138687134	-1.6059226989746094
U	2.86199951171875	-2.032095432281494	-2.61545729637146
O	6.3613786697387695	-4.686078071594238	-0.6498074531555176
O	1.8275506496429443	-1.1092817783355713	-3.767011880874634
O	6.311539173126221	4.605625152587891	-0.35039499402046204
O	1.6707913875579834	1.194054126739502	-3.67799711227417
