25

O	0.7777658700942993	-2.393717050552368	0.6628215312957764
O	0.7777658700942993	2.393717050552368	0.6628215312957764
O	1.1929519176483154	-3.6715281009674072	0.10275158286094666
O	2.5169029235839844	2.8610228852699038e-08	0.6628215312957764
U	-1.8672670125961304	2.6201982498168945	-0.28837132453918457
U	-0.19733920693397522	-4.107081890106201	0.46065521240234375
U	-4.18259859085083	0.24252349138259888	0.23082183301448822
O	-2.9049019813537598	2.8610228852699038e-08	-1.8878175020217896
O	-0.8976641297340393	2.762726068496704	-1.8878175020217896
O	-0.8976641297340393	-2.762726068496704	-1.8878175020217896
O	-1.4053881168365479	-4.3253397941589355	1.3478285074234009
O	-1.4053881168365479	4.3253397941589355	1.3478285074234009
O	-4.54793119430542	2.8610228852699038e-08	1.3478285074234009
O	-3.123188018798828	-2.2691290378570557	0.10275158286094666
O	1.1929519176483154	3.6715281009674072	0.10275158286094666
O	-2.036216974258423	-1.4793989658355713	0.6628215312957764
O	3.8604729175567627	2.8610228852699038e-08	0.10275158286094666
O	-3.123188018798828	2.2691290378570557	0.10275158286094666
O	-2.036216974258423	1.4793989658355713	0.6628215312957764
U	2.422900438308716	1.8833881616592407	-0.1089106872677803
U	3.5565121173858643	-1.179465651512146	-0.32299384474754333
O	3.679353952407837	-2.6732070446014404	1.3478285074234009
O	2.3501150608062744	-1.7074589729309082	-1.8878175020217896
O	3.679353952407837	2.6732070446014404	1.3478285074234009
O	2.3501150608062744	1.7074589729309082	-1.8878175020217896
