25

O	0.7532844543457031	-2.4804537296295166	0.7212284207344055
O	1.0306544303894043	2.3530120849609375	0.6899601221084595
O	1.2535672187805176	-3.6540939807891846	-0.03634175658226013
O	2.6369595527648926	-0.057833462953567505	0.7208817601203918
U	-1.2380484342575073	3.3978443145751953	-0.0849495530128479
U	-1.0720763206481934	-3.2256882190704346	-0.32090288400650024
U	-3.4715256690979004	-0.05759561061859131	-0.10406330227851868
O	-2.9113616943359375	-0.003425420494750142	-1.863750696182251
O	-0.8764960765838623	2.588442325592041	-1.8673243522644043
O	-1.0704357624053955	-2.5384130477905273	-1.8973697423934937
O	-1.4342091083526611	-4.319541931152344	1.1656960248947144
O	-1.381305456161499	4.256008148193359	1.4856996536254883
O	-4.572107791900635	-0.0009275686461478472	1.5661379098892212
O	-3.100052833557129	-2.253790855407715	0.036702245473861694
O	1.3380491733551025	3.591736316680908	0.03773903846740723
O	-2.064589738845825	-1.396958589553833	0.707006573677063
O	3.9199509620666504	-0.05510960519313812	-0.08187207579612732
O	-3.113285541534424	2.2596614360809326	0.07766827940940857
O	-2.069488048553467	1.409103512763977	0.7229361534118652
U	2.6548304557800293	2.016036033630371	-0.09520599246025085
U	2.6925785541534424	-2.1059317588806152	-0.10770148038864136
O	3.7504255771636963	-2.7179853916168213	1.2152607440948486
O	2.1983017921447754	-1.7388566732406616	-2.0023398399353027
O	3.776895046234131	2.5454540252685547	1.2412000894546509
O	2.2594916820526123	1.6115342378616333	-1.9611740112304688
