25

O	0.7777658700942993	-2.393717050552368	0.6628215312957764
O	0.7777658700942993	2.393717050552368	0.6628215312957764
O	1.1929519176483154	-3.6715281009674072	0.10275158286094666
O	2.5169029235839844	2.8610228852699038e-08	0.6628215312957764
U	-0.6777288317680359	3.638371467590332	-1.2160440683364868
U	-0.4970944821834564	-4.342739105224609	-0.0122084254398942
U	-4.042579650878906	-0.16280964016914368	-0.7088820934295654
O	-2.9049019813537598	2.8610228852699038e-08	-1.8878175020217896
O	-0.8976641297340393	2.762726068496704	-1.8878175020217896
O	-0.8976641297340393	-2.762726068496704	-1.8878175020217896
O	-1.4053881168365479	-4.3253397941589355	1.3478285074234009
O	-1.4053881168365479	4.3253397941589355	1.3478285074234009
O	-4.54793119430542	2.8610228852699038e-08	1.3478285074234009
O	-3.123188018798828	-2.2691290378570557	0.10275158286094666
O	1.1929519176483154	3.6715281009674072	0.10275158286094666
O	-2.036216974258423	-1.4793989658355713	0.6628215312957764
O	3.8604729175567627	2.8610228852699038e-08	0.10275158286094666
O	-3.123188018798828	2.2691290378570557	0.10275158286094666
O	-2.036216974258423	1.4793989658355713	0.6628215312957764
U	3.893343210220337	2.4899027347564697	0.38306713104248047
U	3.2144296169281006	-1.7591334581375122	-0.8004232048988342
O	3.679353952407837	-2.6732070446014404	1.3478285074234009
O	2.3501150608062744	-1.7074589729309082	-1.8878175020217896
O	3.679353952407837	2.6732070446014404	1.3478285074234009
O	2.3501150608062744	1.7074589729309082	-1.8878175020217896
