196

U	1.9007289409637451	5.101169109344482	-2.7603023052215576
U	-2.0637731552124023	5.718009948730469	-3.2463161945343018
U	2.4913063049316406	1.8352866172790527	5.377317905426025
U	-0.3616176247596741	0.9791104793548584	-6.005648136138916
U	-0.17372244596481323	-3.054851770401001	-5.476302146911621
U	-1.7024281024932861	-5.118832588195801	4.017759799957275
U	-1.4210774898529053	-6.7814435958862305	-0.9335252642631531
U	6.52562141418457	1.2766159772872925	-0.5704622864723206
U	-3.670713186264038	2.428788185119629	-5.692384719848633
U	2.458735227584839	5.503106117248535	3.301992893218994
U	-1.5988737344741821	5.021913051605225	3.480073928833008
U	-3.1343111991882324	-4.993081569671631	-3.5010249614715576
U	0.45646023750305176	0.3434699773788452	6.859346389770508
U	-6.040929794311523	-3.281905174255371	2.0162088871002197
U	6.400105953216553	-0.26466163992881775	-3.2286272048950195
U	-3.9478092193603516	6.401205539703369	-0.030462469905614853
U	-6.3876824378967285	0.046281516551971436	-4.005074501037598
U	-3.101156234741211	1.8445903062820435	5.478682518005371
U	-5.9624834060668945	-2.9531726837158203	-2.316470146179199
U	2.953920841217041	-6.213202953338623	-0.4434853792190552
U	3.53010630607605	-3.645087480545044	3.707810878753662
U	3.1057026386260986	2.0548481941223145	-5.831924915313721
U	5.047562599182129	5.490547180175781	-0.3949880003929138
U	-5.852885723114014	3.5055272579193115	0.5931641459465027
U	6.128560543060303	-0.8085559010505676	4.312491416931152
U	-5.869814395904541	0.8472633957862854	3.4283666610717773
U	4.784602165222168	-4.435606002807617	-2.8061017990112305
U	-0.018891990184783936	-3.06345534324646	6.160404682159424
O	4.927269458770752	3.9962735176086426	1.8194669485092163
O	3.236907958984375	6.615281105041504	-4.522204399108887
O	-4.383899688720703	2.1094813346862793	-7.084964275360107
O	-5.979832172393799	5.4426422119140625	1.4410085678100586
O	4.051205635070801	0.019459903240203857	2.687649965286255
O	-1.3423397541046143	-6.8745598793029785	1.446690320968628
O	-4.562195301055908	-3.7803702354431152	2.8344290256500244
O	-5.963262557983398	-2.892629623413086	0.27721071243286133
O	0.6022606492042542	5.300246715545654	-3.9942986965179443
O	-6.289345741271973	2.2543678283691406	-1.4843430519104004
O	5.423305034637451	3.8480348587036133	-0.03338058292865753
O	-3.7211952209472656	3.148613452911377	6.381914138793945
O	2.4145233631134033	6.111142158508301	4.955526351928711
O	-4.847570419311523	4.150900363922119	-0.6354656219482422
O	-4.3287577629089355	-3.5309653282165527	-3.944918394088745
O	-1.1777665615081787	-8.041851997375488	0.7742674350738525
O	-7.9528093338012695	-3.9493205547332764	2.181983232498169
O	0.9705923795700073	4.175282955169678	-2.092327356338501
O	-6.816014766693115	2.2419257164001465	-1.4209811687469482
O	0.4909464716911316	5.900977611541748	4.360297679901123
O	-7.644195556640625	0.7608552575111389	0.7957253456115723
O	-7.556074142456055	-3.9810783863067627	-2.8178226947784424
O	-4.229515552520752	-6.149888515472412	2.202782392501831
O	-0.7705873847007751	-4.623985767364502	-0.2585558295249939
O	4.634209632873535	-4.091864109039307	1.40415620803833
O	6.3846282958984375	2.0099849700927734	-2.1283769607543945
O	3.1625142097473145	-3.2667593955993652	2.7428290843963623
O	1.058958888053894	5.496047019958496	-3.6638619899749756
O	-2.69423508644104	4.979333877563477	-0.29647988080978394
O	4.175655364990234	2.893515110015869	-7.0828728675842285
O	0.6764500141143799	3.7839195728302	2.6711130142211914
O	-5.398970127105713	2.7557287216186523	3.298567533493042
O	-3.939279079437256	-5.598475933074951	-3.1147828102111816
O	4.36761999130249	-5.410053253173828	-1.740689754486084
O	2.4166862964630127	-2.6493985652923584	-1.369800329208374
O	5.823139190673828	0.9678933024406433	-4.760791301727295
O	7.502388000488281	-1.048110008239746	-5.264017581939697
O	4.919083118438721	-2.356306552886963	-1.8495028018951416
O	5.976158142089844	1.7196472883224487	1.4676250219345093
O	4.391225814819336	3.317664384841919	6.09494161605835
O	0.6606502532958984	6.666304111480713	2.6297407150268555
O	0.3533676266670227	-5.702948570251465	3.5295979976654053
O	4.4163818359375	-4.786707878112793	4.3173675537109375
O	0.6522407531738281	-1.6053105592727661	4.4564738273620605
O	-1.9161525964736938	3.8885695934295654	-5.297571659088135
O	-1.6009411811828613	0.932350218296051	-6.160281181335449
O	6.042415142059326	2.317852258682251	5.4867682456970215
O	5.343422889709473	-2.3140199184417725	2.8188676834106445
O	7.5384016036987305	-1.214086890220642	5.035101413726807
O	-0.7471514940261841	-5.789300918579102	-4.680723667144775
O	0.5153311491012573	-1.9899978637695312	-3.3300271034240723
O	4.495161533355713	-5.027604103088379	-3.1700241565704346
O	3.6759800910949707	-7.723964691162109	-0.5104804039001465
O	7.436357498168945	2.28545880317688	0.9270870089530945
O	-4.007042407989502	6.36180305480957	-2.367157459259033
O	-1.7089600563049316	3.3666250705718994	-2.4426913261413574
O	4.450404644012451	0.5404280424118042	-0.3870181441307068
O	-1.3638657331466675	3.987379312515259	5.517553329467773
O	-1.284287452697754	2.6738195419311523	7.393354892730713
O	0.307578980922699	0.438744455575943	-4.506580352783203
O	0.9555715322494507	-1.2511121034622192	6.316939830780029
O	2.3872931003570557	-3.7209088802337646	4.946539878845215
O	2.798534393310547	6.345644950866699	-0.6119197607040405
O	4.571571350097656	0.7725895643234253	-4.560523509979248
O	-3.5162062644958496	5.645793437957764	2.5116708278656006
O	-1.6634647846221924	3.770047903060913	1.3529301881790161
O	1.3384121656417847	-1.2417261600494385	-5.776675224304199
O	3.3764798641204834	-4.46513557434082	-5.613800048828125
O	-0.10702691227197647	-4.068972587585449	6.037927627563477
O	0.10470487177371979	0.8019528388977051	5.005123138427734
O	-2.1135733127593994	-6.62345027923584	5.217209815979004
O	-0.8095930218696594	6.9460954666137695	-0.8943090438842773
O	-3.5659372806549072	7.229929447174072	-0.8064224123954773
O	4.705758094787598	-0.209037646651268	5.252390384674072
O	3.6298627853393555	7.162439346313477	1.439583420753479
O	0.007754817605018616	-0.41024231910705566	-8.891070365905762
O	0.6856714487075806	-4.2194108963012695	-6.996459484100342
O	-2.1304187774658203	-6.6986470222473145	-4.019571781158447
O	-4.658782958984375	-2.7164902687072754	3.0142760276794434
O	1.341397762298584	-6.9833083152771	-1.1979597806930542
O	6.484165668487549	-0.8309903740882874	1.784703016281128
O	4.396622657775879	5.430139541625977	2.728511333465576
O	-1.4899933338165283	6.452552795410156	1.6937724351882935
O	-6.381507396697998	-1.6297862529754639	-4.423347473144531
O	2.260272979736328	-7.071944236755371	0.07996243238449097
O	0.0577511265873909	-0.5052152276039124	8.282309532165527
O	-1.1634209156036377	-3.887392997741699	5.242203235626221
O	-3.6014914512634277	-2.670535087585449	1.610703468322754
O	1.996514916419983	-4.386296272277832	0.36344045400619507
O	-2.2404396533966064	3.2648444175720215	-4.776992321014404
O	-4.315851211547852	1.156843662261963	-5.270437717437744
O	2.2175374031066895	1.1494226455688477	-2.9619293212890625
O	-4.847224712371826	2.785133123397827	0.7057908177375793
O	7.448238849639893	0.24468351900577545	-1.20186448097229
O	4.481052398681641	5.155526638031006	-2.750472068786621
O	-0.8988088369369507	-4.496100425720215	-5.79212760925293
O	-4.330311298370361	-1.6088602542877197	-0.6612604260444641
O	2.587372064590454	-4.801529884338379	4.605020046234131
O	-2.0363383293151855	1.2251702547073364	-6.872330188751221
O	-4.3707451820373535	0.4417271614074707	-2.2781176567077637
O	2.9408206939697266	3.47920560836792	-0.20913153886795044
O	1.793067455291748	1.1668792963027954	3.2704548835754395
O	-2.1052918434143066	3.8936057090759277	4.495316028594971
O	-4.782620429992676	0.20538313686847687	5.796065807342529
O	2.353252410888672	-5.94694709777832	-3.629955530166626
O	-1.1948599815368652	-6.493083953857422	-2.39254093170166
O	-4.804752349853516	-4.659880638122559	-0.4017965793609619
O	5.269534111022949	7.137823104858398	1.07072913646698
O	1.9668700695037842	3.2287397384643555	-5.124107837677002
O	4.050746440887451	3.655649423599243	-3.732837438583374
O	-2.207172393798828	0.9630967974662781	6.593170642852783
O	-3.3844494819641113	0.9564076662063599	1.6510107517242432
O	-0.7369332313537598	-6.730398178100586	2.3622119426727295
O	-0.004610300064086914	-2.4780197143554688	6.749196529388428
O	-6.021625518798828	-0.9024012684822083	2.117325782775879
O	-1.092962384223938	-3.1085596084594727	2.909982681274414
O	-2.4908595085144043	1.4678457975387573	-3.1310811042785645
O	-7.609215259552002	0.9203632473945618	-4.898553848266602
O	3.094564199447632	4.892518043518066	4.76382303237915
O	2.8738186359405518	4.477951526641846	5.347986221313477
O	-1.4214015007019043	-1.6150625944137573	-6.792811393737793
O	-1.8937053680419922	-3.050319194793701	-2.7610459327697754
O	-7.161349773406982	-0.9028396010398865	-2.040534019470215
O	3.8798394203186035	-6.03749942779541	-1.6991573572158813
O	-1.3785704374313354	6.353677272796631	-4.903776168823242
O	2.3785953521728516	1.131710171699524	-6.627188682556152
O	1.9418566226959229	1.0945239067077637	-6.200396537780762
O	-5.328580856323242	2.0542798042297363	-4.516829967498779
O	4.7996087074279785	-1.4231752157211304	-3.49423885345459
O	-1.087479591369629	1.912713885307312	3.372871160507202
O	-8.144749641418457	0.917083740234375	4.478282928466797
O	4.421204090118408	-5.518787384033203	2.1356241703033447
O	4.139450550079346	-0.31965160369873047	-2.511692762374878
O	-7.879300117492676	4.0964531898498535	0.05349496006965637
O	2.7135257720947266	-0.17587697505950928	6.201115608215332
O	2.2694406509399414	2.7166357040405273	5.965290546417236
O	-1.570931077003479	6.455178260803223	3.660101890563965
O	-3.7077765464782715	1.8458306789398193	3.965318202972412
O	4.899091720581055	-2.0451085567474365	5.025197505950928
O	-2.1438498497009277	-6.420831680297852	-1.4219783544540405
K	-3.2706401348114014	1.394636631011963	-1.3576140403747559
K	-2.9959404468536377	2.164201021194458	2.62455153465271
K	-0.08483127504587173	-2.9720876216888428	-1.2836297750473022
K	0.9145058989524841	-3.9472103118896484	2.0135254859924316
K	4.133152484893799	-1.2614330053329468	-0.553554117679596
K	1.0896307229995728	4.168691635131836	0.5024152994155884
K	-2.2126355171203613	-1.3832942247390747	-3.488480567932129
K	-1.3404881954193115	-2.137906551361084	3.4709129333496094
K	2.646345615386963	1.513685941696167	-2.8387012481689453
K	2.955223560333252	2.8396575450897217	2.0408425331115723
K	1.7529397010803223	-0.5836274027824402	-3.0304200649261475
K	1.790254831314087	-0.47645071148872375	3.809116840362549
K	-0.6100978255271912	2.1511611938476562	-4.760141849517822
K	0.3343701660633087	2.147200107574463	3.3669416904449463
K	-5.577488899230957	-0.7957074642181396	-0.905132532119751
K	-2.045682191848755	-3.624429941177368	0.6308355927467346
K	3.537339687347412	-1.6204824447631836	6.6324286460876465
K	2.9638941287994385	-2.6602630615234375	-6.840068340301514
K	-6.355749607086182	8.195699691772461	-2.6592981815338135
K	-6.446983814239502	7.760427474975586	1.735868215560913
K	-3.336289644241333	6.647048473358154	-7.84133768081665
K	-3.0906875133514404	5.372502326965332	6.550443649291992
K	4.226894378662109	-5.797728538513184	-6.003349781036377
K	3.7069406509399414	-6.746751308441162	7.373060703277588
K	-1.8199281692504883	2.670360565185547	-10.459563255310059
K	-1.6436933279037476	0.895735502243042	10.555920600891113
K	7.25575065612793	-2.607827663421631	5.734643459320068
K	7.476433753967285	-2.820584535598755	-5.755189895629883
