65

C	-6.204306602478027	-0.8451673984527588	-0.8835119009017944
C	-2.958951473236084	-1.9713798761367798	-4.78375244140625
C	-6.339731216430664	-0.9126783013343811	0.5551228523254395
C	-1.2297039031982422	-2.5090911388397217	-5.336033821105957
C	2.199896812438965	-1.8847850561141968	1.9774527549743652
C	2.306598663330078	-2.1220297813415527	1.0537090301513672
C	-2.5098588466644287	-1.8294363021850586	6.953775405883789
C	5.0274434089660645	-2.0838894844055176	-4.012542247772217
C	0.12127093225717545	-1.9723421335220337	7.411423683166504
C	5.431183815002441	-1.8957326412200928	-3.5799753665924072
Li	-0.04625061899423599	0.22348462045192719	-0.019676946103572845
Li	-3.745370388031006	-1.2741010189056396	2.7165584564208984
Li	0.5192986130714417	-1.0198595523834229	-4.78828239440918
Li	-4.575438976287842	-1.3868377208709717	-3.2005667686462402
Li	1.9846047163009644	0.24077226221561432	5.007225036621094
Li	4.966822147369385	0.3650692105293274	-1.092622995376587
Li	-1.3132342100143433	-2.755302667617798	4.391107082366943
Li	3.0871880054473877	-2.3682479858398438	-3.078901767730713
Li	-2.764310121536255	3.7255868911743164	4.898986339569092
Li	1.3006070852279663	2.833355188369751	-5.203032970428467
O	-0.10835981369018555	2.1584670543670654	7.289359092712402
O	4.370877265930176	1.8697192668914795	-4.031322002410889
O	-2.257362127304077	1.5399411916732788	-1.7724344730377197
O	-2.163038969039917	2.0487794876098633	2.560757637023926
O	0.9969366192817688	1.4991333484649658	-3.16260027885437
O	4.2106828689575195	3.043879270553589	2.0441744327545166
O	-2.5042877197265625	-0.7452318668365479	0.18278902769088745
O	-0.3924378752708435	0.5273654460906982	-1.4223195314407349
O	1.3028510808944702	2.5339102745056152	2.6014275550842285
O	2.756376266479492	1.4945529699325562	-0.6307007074356079
O	0.3538585901260376	3.1436076164245605	0.8425637483596802
O	1.0412694215774536	2.9520225524902344	-0.19374379515647888
O	-3.7828593254089355	0.34129798412323	1.3517879247665405
O	-0.053016602993011475	-0.4498707354068756	-5.091673851013184
O	0.1982770562171936	2.0208358764648438	8.423646926879883
O	6.273125648498535	0.5690908432006836	-3.4134325981140137
O	2.037576198577881	1.3389184474945068	0.8882105350494385
O	-4.989503860473633	-2.400789976119995	-0.47444215416908264
O	-2.8924918174743652	-3.6900901794433594	-3.803924083709717
O	-0.06712192296981812	1.05752694606781	1.4157170057296753
O	1.4361732006072998	0.11861865222454071	-1.3001991510391235
O	-4.279185771942139	0.07333947718143463	-1.0220485925674438
O	-2.518965005874634	-0.007724650204181671	-3.991446018218994
O	2.273909568786621	1.1510493755340576	3.0462000370025635
O	2.9653496742248535	0.5139495730400085	-0.35564759373664856
O	-4.683002471923828	-2.7229676246643066	2.1244635581970215
O	-1.1278388500213623	-3.5584707260131836	-4.769946098327637
O	-6.1875786781311035	2.2826054096221924	1.1970670223236084
O	-1.8003041744232178	1.027104139328003	-6.1140007972717285
O	-0.37373751401901245	3.0214121341705322	0.7775090932846069
O	0.41486483812332153	2.684720039367676	-0.7079210877418518
O	-2.0327558517456055	1.922459363937378	6.007281303405762
O	3.796111583709717	0.1977374106645584	-5.274494647979736
O	-0.29644715785980225	2.584237813949585	-0.44944310188293457
O	0.6728074550628662	-1.4971885681152344	2.8745534420013428
O	2.539128541946411	-2.6809749603271484	-0.2228144109249115
O	-0.8865840435028076	-0.6402117013931274	3.7249908447265625
O	1.524791955947876	-2.880690813064575	-2.7619359493255615
O	-0.012842655181884766	-2.518082618713379	5.770803928375244
O	4.195545196533203	-2.725837469100952	-2.1989173889160156
U	3.866190195083618	1.1931878328323364	1.8324298858642578
U	-0.047775402665138245	2.752016067504883	2.914611339569092
U	1.773413896560669	2.191588878631592	-1.8443313837051392
U	-5.107130527496338	1.7465195655822754	-0.12559448182582855
U	-0.11661101877689362	2.7074856758117676	-2.9172184467315674
