65

C	-4.595516681671143	-1.3114264011383057	0.08094796538352966
C	-2.397479772567749	-1.4225142002105713	-4.29616117477417
C	-4.452561855316162	-1.3962280750274658	0.9091073870658875
C	-1.4007484912872314	-1.6607158184051514	-4.6662421226501465
C	2.3290913105010986	-1.7919617891311646	2.619568347930908
C	3.1187705993652344	-1.913467288017273	1.3269582986831665
C	-1.463647723197937	-1.0570554733276367	4.811916351318359
C	3.2996490001678467	-1.6264218091964722	-3.4663708209991455
C	-0.4145788252353668	-0.9971457123756409	5.234766006469727
C	4.343659400939941	-1.6438931226730347	-2.56305193901062
Li	0.00851520150899887	-0.01582515612244606	-0.09607294201850891
Li	-3.446835517883301	-1.3181073665618896	3.1251327991485596
Li	0.9548766016960144	-1.7833833694458008	-4.63297176361084
Li	-4.360132217407227	-1.1700804233551025	-2.7108259201049805
Li	1.8111228942871094	-0.14010486006736755	4.847411155700684
Li	5.178358554840088	-0.5448275804519653	-0.3138238191604614
Li	-0.06282154470682144	-2.755664587020874	4.133692264556885
Li	3.344573974609375	-3.354362726211548	-1.4583585262298584
Li	-3.3984334468841553	3.8338704109191895	2.2003045082092285
Li	0.6510022878646851	3.6076085567474365	-4.204554557800293
O	-1.0798237323760986	3.2422924041748047	4.8938751220703125
O	4.0645751953125	2.6885061264038086	-3.2636566162109375
O	-2.8633668422698975	1.9043806791305542	-2.081514596939087
O	-2.9183835983276367	1.954310417175293	2.8597307205200195
O	1.2127318382263184	1.6430368423461914	-3.874958038330078
O	4.271395206451416	2.03464412689209	2.431817054748535
O	-1.7823160886764526	0.11899785697460175	0.5520705580711365
O	-0.5805246829986572	0.048358943313360214	-2.194807529449463
O	1.6801321506500244	1.7641819715499878	3.771104097366333
O	3.9698264598846436	1.5432813167572021	-0.22292642295360565
O	0.8696664571762085	2.7683565616607666	2.7681987285614014
O	2.8301639556884766	2.5799009799957275	-0.6431965827941895
O	-4.220959663391113	-0.2393886148929596	1.8488472700119019
O	-0.26639217138290405	-0.249813050031662	-4.919895648956299
O	-0.04391273111104965	0.24562427401542664	5.629773139953613
O	4.984097003936768	-0.3670121133327484	-2.291078567504883
O	1.229743242263794	0.31562262773513794	0.8407499194145203
O	-5.087392807006836	-2.3489315509796143	-0.9436930418014526
O	-3.5199382305145264	-2.191283702850342	-4.002864837646484
O	-0.6156505346298218	0.20241552591323853	2.8314709663391113
O	1.9876112937927246	0.043784406036138535	-1.6763181686401367
O	-4.431187629699707	-0.08286604285240173	-1.1608905792236328
O	-3.004025936126709	-0.14909790456295013	-3.8295345306396484
O	2.446310043334961	-0.834139883518219	3.470734119415283
O	4.054454803466797	-1.0852857828140259	0.5458985567092896
O	-4.401307106018066	-2.303624153137207	2.154224395751953
O	-0.4291006922721863	-2.3964850902557373	-5.028268337249756
O	-4.254090785980225	2.755913734436035	0.2673226594924927
O	-1.5066123008728027	2.859487295150757	-4.4196624755859375
O	-1.7584984302520752	2.8293027877807617	2.0829687118530273
O	0.9067069292068481	2.5757715702056885	-2.7130637168884277
O	-2.331538200378418	-0.010248497128486633	4.864744186401367
O	2.6435296535491943	-0.42845046520233154	-4.3180928230285645
O	-1.683104157447815	2.7024035453796387	-1.4512544870376587
O	1.3419766426086426	-2.739784002304077	3.0199034214019775
O	2.9133269786834717	-2.9453346729278564	0.12634676694869995
O	-1.6791558265686035	-2.2129592895507812	4.084218978881836
O	2.4578161239624023	-2.602440595626831	-3.408076524734497
O	0.36343181133270264	-1.9075762033462524	5.389120101928711
O	4.951631546020508	-2.351881980895996	-1.5897679328918457
U	2.706761598587036	1.173567295074463	1.5713746547698975
U	-0.6920375823974609	1.7644548416137695	3.6723806858062744
U	2.8152031898498535	1.5719923973083496	-2.5605382919311523
U	-3.1049726009368896	1.5415105819702148	0.4142207205295563
U	-0.9436137676239014	1.435776710510254	-3.007749557495117
