65

C	-7.537135601043701	-0.6739100217819214	-1.0731971263885498
C	-3.538724660873413	-2.076944589614868	-5.74995756149292
C	-7.48189640045166	-0.81999671459198	0.6969926357269287
C	-1.3539834022521973	-2.7901484966278076	-6.138903617858887
C	2.290740489959717	-1.4341838359832764	1.9084761142730713
C	2.098620891571045	-1.5653265714645386	0.7846595048904419
C	-2.9274849891662598	-2.0746326446533203	8.963296890258789
C	6.320986747741699	-2.1496119499206543	-4.858333587646484
C	0.4687763452529907	-2.2402822971343994	9.739372253417969
C	6.833252429962158	-1.9194471836090088	-4.333818435668945
Li	-0.0006127282977104187	0.2747093439102173	-0.025469496846199036
Li	-3.761268377304077	-1.80474054813385	2.760307788848877
Li	0.614027202129364	-1.3726897239685059	-4.445189952850342
Li	-4.623157978057861	-2.1506102085113525	-3.3027992248535156
Li	1.8407843112945557	0.8660127520561218	4.9236040115356445
Li	4.637578964233398	0.29074469208717346	-1.1201492547988892
Li	-1.4024426937103271	-2.207399368286133	4.439924716949463
Li	3.1569325923919678	-1.872897982597351	-3.176640748977661
Li	-2.8433544635772705	4.194320201873779	5.579415798187256
Li	1.688903570175171	3.052056074142456	-5.579476833343506
O	0.21798023581504822	1.7646024227142334	10.093384742736816
O	5.711117267608643	1.3324320316314697	-4.932314872741699
O	-2.434408187866211	1.1136020421981812	-1.9397679567337036
O	-2.3159377574920654	2.116168260574341	2.768972873687744
O	1.2358990907669067	1.510115623474121	-3.0373826026916504
O	4.489921569824219	3.184614896774292	2.083132028579712
O	-3.743987798690796	-1.7020447254180908	-0.08651470392942429
O	0.20639657974243164	0.8863679766654968	-1.1993844509124756
O	1.033189296722412	2.7591636180877686	2.373359203338623
O	2.773308753967285	1.4540996551513672	-0.543035626411438
O	0.012018531560897827	2.955434799194336	0.5852458477020264
O	0.6827256679534912	2.9291329383850098	-0.048628926277160645
O	-3.208810329437256	0.6969730257987976	1.0608755350112915
O	0.572878360748291	-0.6695259213447571	-5.400051116943359
O	0.8648790717124939	3.882305383682251	10.60704517364502
O	7.465991973876953	1.3800984621047974	-3.9404685497283936
O	2.2804923057556152	1.8691775798797607	0.7906432747840881
O	-5.408978462219238	-2.9100916385650635	-0.350435346364975
O	-2.536214590072632	-4.663445472717285	-3.7064785957336426
O	0.17673172056674957	1.175220251083374	0.9595504999160767
O	1.3171052932739258	0.28205984830856323	-1.111269235610962
O	-3.796976327896118	0.0027439966797828674	-1.3384506702423096
O	-1.8629790544509888	-0.2831870913505554	-4.309548854827881
O	1.7885631322860718	0.20217859745025635	2.3375937938690186
O	1.9241323471069336	0.1902218759059906	-0.4228667914867401
O	-4.7241010665893555	-3.498225212097168	2.0223002433776855
O	-1.0436640977859497	-4.390791416168213	-4.715435028076172
O	-8.497673034667969	2.164181709289551	1.8273290395736694
O	-2.0224246978759766	-0.07213246822357178	-8.441625595092773
O	-0.3728711009025574	2.872798204421997	0.6492775678634644
O	0.2811198830604553	2.7025539875030518	-0.12075957655906677
O	-1.8583215475082397	3.300687313079834	7.025738716125488
O	4.5732293128967285	1.0337002277374268	-5.733096122741699
O	-0.12206516414880753	2.419539451599121	-0.12071612477302551
O	0.6730716228485107	0.11130259931087494	2.557483196258545
O	2.3951189517974854	-3.0507402420043945	-0.17516304552555084
O	-0.5033679008483887	-0.2144325077533722	3.2608697414398193
O	1.5792282819747925	-2.2754812240600586	-2.723766803741455
O	-0.051279619336128235	-3.09544038772583	5.831033229827881
O	4.252704620361328	-2.9131486415863037	-2.3626391887664795
U	4.333719253540039	0.8075005412101746	1.6408193111419678
U	0.6745003461837769	2.645143985748291	2.5880484580993652
U	1.5224688053131104	2.209853410720825	-1.2883427143096924
U	-6.103604793548584	1.9544508457183838	-0.1753205507993698
U	0.400180459022522	2.8563613891601562	-2.894530773162842
