65

C	-4.589842319488525	-1.4503298997879028	-0.25059032440185547
C	-2.4698617458343506	-1.4360804557800293	-4.1224822998046875
C	-4.529265403747559	-1.4803303480148315	1.1832714080810547
C	-1.2319382429122925	-1.6535924673080444	-4.707059383392334
C	2.3239479064941406	-1.922200322151184	2.3528811931610107
C	3.0670645236968994	-1.8823305368423462	1.3372528553009033
C	-1.6958575248718262	-0.9490354061126709	4.8524580001831055
C	3.209531307220459	-1.7655854225158691	-3.3836121559143066
C	-0.37500861287117004	-0.9698851108551025	5.169346332550049
C	4.283684730529785	-1.783024787902832	-2.3987650871276855
Li	0.049082472920417786	-0.013161975890398026	-0.10257789492607117
Li	-3.1764025688171387	-1.4458088874816895	3.2580556869506836
Li	1.1286182403564453	-1.6562039852142334	-4.366309642791748
Li	-4.26386022567749	-1.3009793758392334	-2.480149269104004
Li	1.831023097038269	-0.1233874186873436	4.705951690673828
Li	5.196307182312012	-0.587864339351654	-0.3594591021537781
Li	0.1288987100124359	-2.694993019104004	4.102989196777344
Li	3.441950559616089	-3.4443089962005615	-1.3752777576446533
Li	-3.4373021125793457	3.906773567199707	2.017664670944214
Li	0.5752898454666138	3.6904819011688232	-4.158242225646973
O	-0.946830689907074	3.55145525932312	4.789069652557373
O	4.072666168212891	2.6527936458587646	-3.0987842082977295
O	-2.9418880939483643	1.9846957921981812	-1.9291751384735107
O	-2.883633613586426	1.9970674514770508	2.6491334438323975
O	1.273325800895691	1.5274618864059448	-4.055612564086914
O	4.219877243041992	2.0511813163757324	2.5128719806671143
O	-1.7648614645004272	0.20243754982948303	0.3123461902141571
O	-0.6683306694030762	0.057674556970596313	-1.9812747240066528
O	1.6754215955734253	1.6887775659561157	3.7351558208465576
O	4.00295352935791	1.547825574874878	-0.25241637229919434
O	1.1598541736602783	2.7264950275421143	2.5459108352661133
O	2.7828316688537598	2.5315604209899902	-0.28586286306381226
O	-4.281658172607422	-0.33403557538986206	1.846543788909912
O	-0.4178246557712555	-0.38696208596229553	-4.9228129386901855
O	0.206315279006958	0.2546226978302002	5.630882263183594
O	4.968279838562012	-0.45798903703689575	-2.2544643878936768
O	1.3245645761489868	0.41186222434043884	0.8430991172790527
O	-5.077333450317383	-2.425800323486328	-0.9466090202331543
O	-3.3864479064941406	-2.292532444000244	-4.040833473205566
O	-0.6519193053245544	0.3883943259716034	2.5048913955688477
O	1.869422435760498	0.046661779284477234	-1.6169625520706177
O	-4.478250026702881	-0.14545610547065735	-0.8800161480903625
O	-2.8303866386413574	-0.08166210353374481	-3.9759294986724854
O	2.5452637672424316	-0.8759380578994751	3.192850351333618
O	3.8592472076416016	-0.9380075335502625	0.961810827255249
O	-4.531177520751953	-2.2534000873565674	1.9381139278411865
O	-0.6892275810241699	-2.684474229812622	-4.979710578918457
O	-4.485184669494629	2.8103325366973877	0.5616596937179565
O	-1.3447092771530151	2.9690005779266357	-4.421419620513916
O	-1.801591157913208	2.790764331817627	1.8904166221618652
O	1.0972843170166016	2.4384377002716064	-2.8164310455322266
O	-2.524731159210205	0.19866693019866943	4.911159038543701
O	2.9733681678771973	-0.588693380355835	-4.297714710235596
O	-1.730270266532898	2.7363266944885254	-1.2346500158309937
O	1.4136661291122437	-2.7964327335357666	2.713850975036621
O	2.757575035095215	-2.9465136528015137	0.4649871289730072
O	-1.8475931882858276	-2.057436943054199	4.235439300537109
O	2.588653326034546	-2.6455090045928955	-3.2598767280578613
O	0.6236226558685303	-1.8258122205734253	5.415106773376465
O	4.86879301071167	-2.4099624156951904	-1.607615351676941
U	2.8004324436187744	1.1300392150878906	1.6275962591171265
U	-1.4195703268051147	1.6066772937774658	3.673302173614502
U	3.2145090103149414	1.237924337387085	-2.0322563648223877
U	-3.2145097255706787	1.4596807956695557	0.008770592510700226
U	-0.2463836818933487	1.1679716110229492	-3.739654779434204
